geometry optimzed in LAMMPS
_audit_creation_date              2020-12-01 
_audit_creation_method            'lammps2cif' 
_symmetry_space_group_name_H-M    'P1' 
_symmetry_Int_Tables_number       1 
_symmetry_cell_setting            triclinic 
loop_ 
_symmetry_equiv_pos_as_xyz 
  x,y,z 
_cell_length_a                    53.31631188 
_cell_length_b                    53.257749284148076 
_cell_length_c                    33.56763622811908 
_cell_angle_alpha                 90.1566500370153 
_cell_angle_beta                  88.99109073833007 
_cell_angle_gamma                 130.59672658338772 
loop_ 
_atom_site_label 
_atom_site_type_symbol 
_atom_site_fract_x 
_atom_site_fract_y 
_atom_site_fract_z 
_atom_site_charge 
N1          N  0.11707812  0.57406394  0.34456985    -0.25900
N2          N  0.14749795  0.58534748  0.34848077    -0.33800
C3          C  0.15838960  0.58324746  0.31317587     0.02400
C4          C  0.13349718  0.56963077  0.28588410     0.08400
C5          C  0.10771364  0.56427859  0.30683786    -0.04700
H6          H  0.18212507  0.58977572  0.30819870     0.09100
H7          H  0.08359872  0.55341004  0.29592981     0.10300
Cu8        Cu  0.17098657  0.59924697  0.40276940     0.44200
Cu9        Cu  0.08832437  0.56981723  0.39110196     0.42000
Cu10       Cu  0.12072716  0.58510493  0.48947960     0.43900
N11         N  0.18595129  0.60552592  0.46124324    -0.33300
N12         N  0.16757977  0.60005047  0.49269675    -0.27600
C13         C  0.18385394  0.60487329  0.52599210    -0.03700
C14         C  0.21373489  0.61377433  0.51480016     0.08500
C15         C  0.21438855  0.61397234  0.47371120     0.02300
H16         H  0.17438753  0.60164953  0.55601977     0.10000
H17         H  0.23376084  0.61924070  0.45428854     0.09100
N18         N  0.07433775  0.56956324  0.47839992    -0.34800
N19         N  0.06255260  0.56425339  0.44218708    -0.27000
C20         C  0.03180271  0.55376497  0.44486782    -0.02200
C21         C  0.02383255  0.55235852  0.48481675     0.06400
C22         C  0.05138275  0.56253105  0.50513027     0.04500
H23         H  0.01631010  0.54703329  0.41958551     0.09600
H24         H  0.05434526  0.56423463  0.53708895     0.08400
C25         C  0.31464968  0.63948447  0.64546738     0.87800
C26         C  0.34399642  0.67348319  0.62685710    -0.52400
C27         C  0.34476007  0.67365352  0.58619537     0.10800
C28         C  0.31663139  0.64045946  0.56755393     0.21700
C29         C  0.28407522  0.63141610  0.62620376    -0.53100
C30         C  0.28522018  0.63176845  0.58561045     0.10900
C31         C  0.31742592  0.61489783  0.62694788    -0.52700
C32         C  0.31852301  0.61557237  0.58636076     0.11400
H33         H  0.36163371  0.69588965  0.64347366     0.15900
H34         H  0.31741146  0.64083033  0.53441873     0.01700
H35         H  0.26347705  0.62604544  0.64311270     0.16200
H36         H  0.31850165  0.59849871  0.64445417     0.16000
N37         N  0.35342451  0.49429765  0.35170004    -0.25900
N38         N  0.34838089  0.51549097  0.35392972    -0.33800
C39         C  0.35202067  0.52776541  0.31719864     0.02400
C40         C  0.35980546  0.51349246  0.29090480     0.08400
C41         C  0.36044146  0.49249146  0.31381073    -0.04700
H42         H  0.35039098  0.54652232  0.31057555     0.09100
H43         H  0.36676315  0.47782829  0.30390433     0.10300
Cu44       Cu  0.33983857  0.52827351  0.40779339     0.44200
Cu45       Cu  0.35454244  0.47144130  0.40014655     0.42000
Cu46       Cu  0.34858159  0.49487385  0.49729797     0.43900
N47         N  0.33488751  0.53818377  0.46592567    -0.33300
N48         N  0.33813620  0.52626164  0.49812675    -0.27600
C49         C  0.33440691  0.53843537  0.53068946    -0.03700
C50         C  0.32853631  0.55883037  0.51826913     0.08500
C51         C  0.32900658  0.55822281  0.47721095     0.02300
H52         H  0.33631962  0.53317722  0.56106307     0.10000
H53         H  0.32584275  0.57171933  0.45697864     0.09100
N54         N  0.36004684  0.46479673  0.48749087    -0.34800
N55         N  0.36188288  0.45604276  0.45144050    -0.27000
C56         C  0.37172902  0.43845135  0.45402758    -0.02200
C57         C  0.37638177  0.43598551  0.49380215     0.06400
C58         C  0.36862577  0.45286490  0.51417013     0.04500
H59         H  0.37621053  0.42926012  0.42858280     0.09600
H60         H  0.37028728  0.45719493  0.54589710     0.08400
N61         N  0.82913241  0.46129540  0.63991301    -0.25900
N62         N  0.79854488  0.44953800  0.63602424    -0.33800
C63         C  0.78241279  0.43718570  0.67136263     0.02400
C64         C  0.80378560  0.44108706  0.69867338     0.08400
C65         C  0.83327159  0.45664272  0.67770324    -0.04700
H66         H  0.75663004  0.42500926  0.67636805     0.09100
H67         H  0.85596219  0.46354392  0.68862851     0.10300
Cu68       Cu  0.77931671  0.44754378  0.58192139     0.44200
Cu69       Cu  0.86352330  0.48117796  0.59348913     0.42000
Cu70       Cu  0.83443045  0.47693746  0.49547680     0.43900
N71         N  0.76441438  0.44209327  0.52370116    -0.33300
N72         N  0.78428727  0.45246502  0.49214459    -0.27600
C73         C  0.76619087  0.44205938  0.45901534    -0.03700
C74         C  0.73358337  0.42449588  0.47045779     0.08500
C75         C  0.73323865  0.42486690  0.51152446     0.02300
H76         H  0.77583374  0.44562566  0.42901276     0.10000
H77         H  0.71176542  0.41211700  0.53116898     0.09100
N78         N  0.88268344  0.49731984  0.50657740    -0.34800
N79         N  0.89323339  0.49877378  0.54254886    -0.27000
C80         C  0.92493501  0.51193468  0.53978137    -0.02200
C81         C  0.93486235  0.51907827  0.50002268     0.06400
C82         C  0.90744274  0.50950525  0.47990862     0.04500
H83         H  0.93924631  0.51522142  0.56484688     0.09600
H84         H  0.90541996  0.51063984  0.44806708     0.08400
N85         N  0.48546146  0.38400982  0.64349691    -0.25900
N86         N  0.50531717  0.37731701  0.64019294    -0.33800
C87         C  0.51960998  0.38274546  0.67561306     0.02400
C88         C  0.50809367  0.39348195  0.70207864     0.08400
C89         C  0.48658659  0.39392143  0.68065128    -0.04700
H90         H  0.53785532  0.38028626  0.68110845     0.09100
H91         H  0.47342507  0.40189434  0.69097530     0.10300
Cu92       Cu  0.51373486  0.36444964  0.58603210     0.44200
Cu93       Cu  0.45995408  0.38297153  0.59724456     0.42000
Cu94       Cu  0.47487402  0.36883862  0.49923990     0.43900
N95         N  0.52045500  0.35713896  0.52709459    -0.33300
N96         N  0.50663698  0.35886469  0.49599621    -0.27600
C97         C  0.51739264  0.35426215  0.46248216    -0.03700
C98         C  0.53886139  0.34941244  0.47306352     0.08500
C99         C  0.54032937  0.35139756  0.51406715     0.02300
H100        H  0.51048732  0.35495740  0.43264413     0.10000
H101        H  0.55519264  0.34942479  0.53303457     0.09100
N102        N  0.44578130  0.38131041  0.51093161    -0.34800
N103        N  0.44032077  0.38637130  0.54739383    -0.27000
C104        C  0.42259121  0.39609488  0.54573662    -0.02200
C105        C  0.41654846  0.39724644  0.50612959     0.06400
C106        C  0.43151096  0.38761014  0.48492270     0.04500
H107        H  0.41567809  0.40280559  0.57148480     0.09600
H108        H  0.43293218  0.38642614  0.45286655     0.08400
C109        C  0.61900816  0.33492094  0.34327024     0.87800
C110        C  0.65262841  0.36378436  0.36156602    -0.52400
C111        C  0.65194880  0.36387509  0.40217939     0.10800
C112        C  0.61831721  0.33551001  0.42121760     0.21700
C113        C  0.61013945  0.30379701  0.36296870    -0.53100
C114        C  0.60964197  0.30417051  0.40356785     0.10900
C115        C  0.59428883  0.33775648  0.36176073    -0.52700
C116        C  0.59410374  0.33814462  0.40239544     0.11400
H117        H  0.67541519  0.38180028  0.34488621     0.15900
H118        H  0.61803099  0.33573866  0.45434420     0.01700
H119        H  0.60486237  0.28337158  0.34627849     0.16200
H120        H  0.57855219  0.33952450  0.34421052     0.16000
N121        N  0.46258436  0.86419014  0.34882783    -0.25900
N122        N  0.44283765  0.83161771  0.35166292    -0.33800
C123        C  0.42966609  0.81860477  0.31578742     0.02400
C124        C  0.44174138  0.84440473  0.28939073     0.08400
C125        C  0.46247803  0.87280568  0.31136552    -0.04700
H126        H  0.41167476  0.79239345  0.30995316     0.09100
H127        H  0.47562568  0.89793107  0.30122716     0.10300
Cu128      Cu  0.43257432  0.80688537  0.40530981     0.44200
Cu129      Cu  0.48625231  0.89585506  0.39619801     0.42000
Cu130      Cu  0.46888875  0.85955566  0.49327881     0.43900
N131        N  0.42457142  0.78919089  0.46333562    -0.33300
N132        N  0.43773656  0.80826961  0.49509569    -0.27600
C133        C  0.42641512  0.78901690  0.52797217    -0.03700
C134        C  0.40531829  0.75644906  0.51624767     0.08500
C135        C  0.40454474  0.75730891  0.47523379     0.02300
H136        H  0.43245591  0.79809249  0.55816675     0.10000
H137        H  0.38989103  0.73637202  0.45554079     0.09100
N138        N  0.49640043  0.90990288  0.48368124    -0.34800
N139        N  0.50296450  0.92310888  0.44771378    -0.27000
C140        C  0.51831025  0.95535413  0.45093024    -0.02200
C141        C  0.52148353  0.96288070  0.49101657     0.06400
C142        C  0.50743156  0.93350404  0.51089297     0.04500
H143        H  0.52478730  0.97142531  0.42586087     0.09600
H144        H  0.50386334  0.92920343  0.54276403     0.08400
N145        N  0.53526700  0.12156552  0.63968869    -0.25900
N146        N  0.54184165  0.15007015  0.63644826    -0.33800
C147        C  0.53303353  0.15583700  0.67088921     0.02400
C148        C  0.52017066  0.12944189  0.69664354     0.08400
C149        C  0.52193525  0.10829209  0.67581642    -0.04700
H150        H  0.53537186  0.17729288  0.67639499     0.09100
H151        H  0.51411273  0.08487328  0.68619195     0.10300
Cu152      Cu  0.56083476  0.17815601  0.58415264     0.44200
Cu153      Cu  0.54388954  0.10108815  0.59537186     0.42000
Cu154      Cu  0.57335972  0.14273123  0.50038621     0.43900
N155        N  0.57592943  0.19876822  0.52710667    -0.33300
N156        N  0.58037338  0.18598492  0.49676314    -0.27600
C157        C  0.58882117  0.20477756  0.46401331    -0.03700
C158        C  0.58968234  0.23043169  0.47438526     0.08500
C159        C  0.58143230  0.22596892  0.51443615     0.02300
H160        H  0.59350554  0.19982552  0.43477768     0.10000
H161        H  0.57908775  0.24104765  0.53292130     0.10700
N162        N  0.56199723  0.09783797  0.51159786    -0.34800
N163        N  0.55145353  0.08291922  0.54680989    -0.27000
C164        C  0.54443135  0.05374979  0.54452778    -0.02200
C165        C  0.55078143  0.04996589  0.50582592     0.06400
C166        C  0.56188078  0.07837646  0.48578409     0.04500
H167        H  0.53416014  0.03617676  0.56894805     0.09600
H168        H  0.56829351  0.08395370  0.45441836     0.08400
N169        N  0.55013822  0.43820556  0.86357431    -0.25900
N170        N  0.55990414  0.42125914  0.86954062    -0.33800
C171        C  0.55718651  0.40642959  0.83533349     0.02400
C172        C  0.54479420  0.41423967  0.80667517     0.08400
C173        C  0.54076646  0.43457260  0.82569704    -0.04700
H174        H  0.56283983  0.39036006  0.83190992     0.09100
H175        H  0.53133650  0.44566864  0.81334632     0.10300
Cu176      Cu  0.57372372  0.41783445  0.92523592     0.44200
Cu177      Cu  0.54763602  0.46350269  0.90777159     0.42000
Cu178      Cu  0.56329503  0.45580768  0.00905321     0.43900
N179        N  0.58230066  0.41518092  0.98448374    -0.33300
N180        N  0.57841004  0.42850856  0.01470193    -0.27600
C181        C  0.58423448  0.42005680  0.04889970    -0.03700
C182        C  0.59216439  0.40068149  0.03951595     0.08500
C183        C  0.59070688  0.39801633  0.99865308     0.02300
H184        H  0.58193673  0.42675146  0.07835811     0.10000
H185        H  0.59445451  0.38381060  0.98056676     0.09100
N186        N  0.54573614  0.47957645  0.99317616    -0.34800
N187        N  0.54055968  0.48259650  0.95581748    -0.27000
C188        C  0.52720614  0.49694861  0.95488842    -0.02200
C189        C  0.52363225  0.50324456  0.99364725     0.06400
C190        C  0.53570585  0.49199226  0.01714875     0.04500
H191        H  0.51937420  0.50099381  0.92796924     0.09600
H192        H  0.53596727  0.49167203  0.04936310     0.08400
N193        N  0.39982828  0.54975291  0.12568363    -0.25900
N194        N  0.38394078  0.56069893  0.11992327    -0.33800
C195        C  0.37005877  0.55921557  0.15475586     0.02400
C196        C  0.37739020  0.54640483  0.18354145     0.08400
C197        C  0.39644128  0.54085692  0.16399659    -0.04700
H198        H  0.35520624  0.56628910  0.15864870     0.09100
H199        H  0.40721849  0.53113738  0.17642915     0.10300
Cu200      Cu  0.38106857  0.57519141  0.06416329     0.44200
Cu201      Cu  0.42502093  0.54651989  0.08175400     0.42000
Cu202      Cu  0.42170849  0.56690496  0.98164739     0.43900
N203        N  0.37947449  0.58433440  0.00465857    -0.33300
N204        N  0.39385265  0.58120171  0.97485351    -0.27600
C205        C  0.38676205  0.58801685  0.94033604    -0.03700
C206        C  0.36712153  0.59575937  0.94908226     0.08500
C207        C  0.36292059  0.59319957  0.98990365     0.02300
H208        H  0.39499314  0.58702483  0.91114340     0.10000
H209        H  0.34853632  0.59704279  0.00760808     0.09100
N210        N  0.44710420  0.55116293  0.99732515    -0.34800
N211        N  0.44832407  0.54392650  0.03445104    -0.27000
C212        C  0.46594223  0.53406882  0.03553624    -0.02200
C213        C  0.47637810  0.53510103  0.99707756     0.06400
C214        C  0.46393588  0.54597965  0.97360974     0.04500
H215        H  0.47014233  0.52616593  0.06234236     0.09600
H216        H  0.46658503  0.54947591  0.94159939     0.08400
C217        C  0.30207178  0.62694639  0.82077006     0.87800
C218        C  0.26720251  0.60077394  0.83997753    -0.52400
C219        C  0.26727350  0.59998232  0.88061938     0.10800
C220        C  0.30152427  0.62494885  0.89861029     0.21700
C221        C  0.31519312  0.65954035  0.84079569    -0.53100
C222        C  0.31503421  0.65835397  0.88134158     0.10900
C223        C  0.32283800  0.61900851  0.83792819    -0.52700
C224        C  0.32236967  0.61791826  0.87848220     0.11400
H225        H  0.24432295  0.58525737  0.82384394     0.15900
H226        H  0.30135748  0.62415554  0.93172402     0.01700
H227        H  0.32377907  0.68152123  0.82439803     0.16200
H228        H  0.33654410  0.61453276  0.81957642     0.16000
N229        N  0.08433718  0.50115717  0.12692693    -0.25900
N230        N  0.11674295  0.52333691  0.12170277    -0.33800
C231        C  0.13023108  0.54058413  0.15561623     0.02400
C232        C  0.10483281  0.52858956  0.18314470     0.08400
C233        C  0.07623844  0.50374442  0.16383975    -0.04700
H234        H  0.15634872  0.56083129  0.15944062     0.09100
H235        H  0.05120607  0.48895982  0.17553893     0.10300
Cu236      Cu  0.13962031  0.52968092  0.06715272     0.44200
Cu237      Cu  0.05192672  0.47006740  0.08316062     0.42000
Cu238      Cu  0.08347995  0.48104120  0.98392974     0.43900
N239        N  0.15490447  0.53199712  0.00866646    -0.33300
N240        N  0.13472414  0.51456229  0.97881948    -0.27600
C241        C  0.15276017  0.52292741  0.94508478    -0.03700
C242        C  0.18568439  0.54657607  0.95422176     0.08500
C243        C  0.18627960  0.55185104  0.99459715     0.02300
H244        H  0.14257835  0.51291679  0.91600330     0.10000
H245        H  0.20785746  0.56924581  0.01235432     0.09100
N246        N  0.03337488  0.45132276  0.99771309    -0.34800
N247        N  0.02208901  0.44700836  0.03460167    -0.27000
C248        C  0.98936050  0.42957908  0.03422153    -0.02200
C249        C  0.97940554  0.42262208  0.99503726     0.06400
C250        C  0.00793563  0.43663773  0.97269682     0.04500
H251        H  0.97455360  0.42439092  0.06046914     0.09600
H252        H  0.01033207  0.43782000  0.94053819     0.08400
N253        N  0.39725427  0.83188356  0.12896437    -0.25900
N254        N  0.38711226  0.80198663  0.12332036    -0.33800
C255        C  0.39086831  0.79141860  0.15728866     0.02400
C256        C  0.40434840  0.81607081  0.18534819     0.08400
C257        C  0.40788569  0.84127758  0.16633063    -0.04700
H258        H  0.38498783  0.76790416  0.16097878     0.09100
H259        H  0.41757835  0.86485769  0.17842618     0.10300
Cu260      Cu  0.37091704  0.77869129  0.06859334     0.44200
Cu261      Cu  0.39783259  0.85968486  0.08575416     0.42000
Cu262      Cu  0.37544276  0.82732298  0.98681135     0.43900
N263        N  0.35935318  0.76319788  0.00991572    -0.33300
N264        N  0.36113263  0.78075782  0.98035416    -0.27600
C265        C  0.35254907  0.76366503  0.94634184    -0.03700
C266        C  0.34509664  0.73413724  0.95508636     0.08500
C267        C  0.34960900  0.73452546  0.99546498     0.02300
H268        H  0.35190590  0.77218953  0.91746481     0.10000
H269        H  0.34623939  0.71549779  0.01306541     0.09100
N270        N  0.39106628  0.87340513  0.00176615    -0.34800
N271        N  0.39907023  0.88501380  0.03836545    -0.27000
C272        C  0.40863269  0.91538706  0.03881687    -0.02200
C273        C  0.40657044  0.92337450  0.00049849     0.06400
C274        C  0.39535966  0.89620359  0.97780578     0.04500
H275        H  0.41683798  0.93048906  0.06510731     0.09600
H276        H  0.39095873  0.89335494  0.94612443     0.08400
N277        N  0.47942061  0.11515834  0.86132415    -0.25900
N278        N  0.49619096  0.14706955  0.86656746    -0.33800
C279        C  0.50846656  0.16277070  0.83104516     0.02400
C280        C  0.49919517  0.13960346  0.80226075     0.08400
C281        C  0.48057541  0.10963496  0.82260522    -0.04700
H282        H  0.52445082  0.18927890  0.82682185     0.09100
H283        H  0.46979851  0.08566244  0.81076470     0.10300
Cu284      Cu  0.50456809  0.16751162  0.92264317     0.44200
Cu285      Cu  0.45995135  0.08088652  0.90701987     0.42000
Cu286      Cu  0.47776761  0.11109735  0.00709434     0.43900
N287        N  0.51184685  0.18145855  0.98201604    -0.33300
N288        N  0.50214792  0.16106400  0.01254239    -0.27600
C289        C  0.51212044  0.17834054  0.04654889    -0.03700
C290        C  0.52871403  0.21098047  0.03684076     0.08500
C291        C  0.52823949  0.21222450  0.99584257     0.02300
H292        H  0.50838998  0.16803491  0.07597748     0.10000
H293        H  0.53976127  0.23398117  0.97731986     0.09100
N294        N  0.45604177  0.06287550  0.99290974    -0.34800
N295        N  0.44927041  0.05185175  0.95601534    -0.27000
C296        C  0.43701363  0.02042791  0.95597948    -0.02200
C297        C  0.43600745  0.01116419  0.99487118     0.06400
C298        C  0.44820885  0.03866103  0.01746460     0.04500
H299        H  0.43030301  0.00594365  0.92937717     0.09600
H300        H  0.45190333  0.04115358  0.04929601     0.08400
C301        C  0.61096688  0.32489832  0.16787451     0.87800
C302        C  0.58353502  0.29076546  0.14922749    -0.52400
C303        C  0.58360227  0.29157304  0.10860061     0.10800
C304        C  0.61060207  0.32578721  0.09001226     0.21700
C305        C  0.64307712  0.33597726  0.14758381    -0.53100
C306        C  0.64273385  0.33658146  0.10698391     0.10900
C307        C  0.60600972  0.34805606  0.15036881    -0.52700
C308        C  0.60583525  0.34839158  0.10982007     0.11400
H309        H  0.56656397  0.26770274  0.16570953     0.15900
H310        H  0.61048459  0.32620788  0.05689505     0.01700
H311        H  0.66411072  0.34272960  0.16383374     0.16200
H312        H  0.60299446  0.36289739  0.16850393     0.16000
N313        N  0.81279538  0.39538471  0.85792979    -0.25900
N314        N  0.78832589  0.39560914  0.86336547    -0.33800
C315        C  0.78436012  0.40596640  0.82930171     0.02400
C316        C  0.80774715  0.41270519  0.80158171     0.08400
C317        C  0.82520191  0.40573511  0.82081709    -0.04700
H318        H  0.76660003  0.40933172  0.82554608     0.09100
H319        H  0.84604921  0.40874403  0.80900333     0.10300
Cu320      Cu  0.76399520  0.38421629  0.91825204     0.44200
Cu321      Cu  0.83144510  0.38462899  0.90115389     0.42000
Cu322      Cu  0.80177820  0.37368730  0.00020014     0.43900
N323        N  0.74667765  0.37321596  0.97718445    -0.33300
N324        N  0.76037535  0.36946847  0.00647440    -0.27600
C325        C  0.74292893  0.36214690  0.04042702    -0.03700
C326        C  0.71717996  0.36129791  0.03209454     0.08500
C327        C  0.72012649  0.36835612  0.99188616     0.02300
H328        H  0.74845174  0.35747746  0.06893677     0.10000
H329        H  0.70402638  0.36955499  0.97449141     0.09100
N330        N  0.84332666  0.37947865  0.98606497    -0.34800
N331        N  0.85381510  0.38290857  0.94896047    -0.27000
C332        C  0.88253392  0.38900412  0.94879830    -0.02200
C333        C  0.89060046  0.38947521  0.98791385     0.06400
C334        C  0.86514777  0.38324147  0.01072389     0.04500
H335        H  0.89714216  0.39447477  0.92222012     0.09600
H336        H  0.86348994  0.38314604  0.04290282     0.08400
C337        C  0.69176319  0.35331957  0.05941155    -0.11900
C338        C  0.66993436  0.34601922  0.08184161    -0.13500
C339        C  0.56213790  0.26232398  0.08480843    -0.11900
C340        C  0.54603803  0.23857473  0.06345263    -0.13500
C341        C  0.42614849  0.97973462  0.00981225    -0.15100
C342        C  0.41529758  0.95434622  0.98573364    -0.30300
H343        H  0.42833763  0.97780640  0.04150975     0.13900
H344        H  0.41294541  0.95620745  0.95406874     0.14500
C345        C  0.94688025  0.40843396  0.97932379    -0.15100
C346        C  0.92156369  0.39919289  0.00327981    -0.30300
H347        H  0.94448315  0.40733198  0.94721014     0.13900
H348        H  0.92397179  0.40029096  0.03537875     0.14500
C349        C  0.33484798  0.70824718  0.92788036    -0.11900
C350        C  0.32602225  0.68591440  0.90603127    -0.13500
C351        C  0.23753970  0.57933971  0.90500170    -0.11900
C352        C  0.21356776  0.56373137  0.92697691    -0.13500
C353        C  0.33956582  0.61032883  0.90080307    -0.11900
C354        C  0.35280831  0.60375312  0.92165582    -0.13500
C355        C  0.59766140  0.38389830  0.06652073    -0.11900
C356        C  0.60159222  0.36831959  0.08726545    -0.13500
C357        C  0.50720158  0.51572887  0.00792102    -0.15100
C358        C  0.49507161  0.52507486  0.98291610    -0.30300
H359        H  0.50440237  0.51640538  0.03989989     0.13900
H360        H  0.49834683  0.52493564  0.95095261     0.14500
C361        C  0.50690706  0.12336985  0.73762104    -0.15100
C362        C  0.51048360  0.14638919  0.76006888    -0.30300
H363        H  0.49513794  0.09915984  0.75023321     0.13900
H364        H  0.52350492  0.17110156  0.74813642     0.14500
C365        C  0.53250246  0.99375326  0.50945533    -0.15100
C366        C  0.54376080  0.02066289  0.48786051    -0.30300
H367        H  0.52989510  0.99364518  0.54159349     0.13900
H368        H  0.54688328  0.02099128  0.45579386     0.14500
C369        C  0.41348076  0.81559760  0.22647904    -0.15100
C370        C  0.43279406  0.84342244  0.24781458    -0.30300
H371        H  0.40456070  0.79222937  0.23903351     0.13900
H372        H  0.44274491  0.86689261  0.23443213     0.14500
C373        C  0.59664576  0.25598846  0.44867087    -0.11900
C374        C  0.60243544  0.27772243  0.42780609    -0.13500
C375        C  0.58907202  0.30450134  0.27996702    -0.12000
C376        C  0.61738994  0.33294953  0.29777291     0.10100
C377        C  0.64262474  0.35890957  0.27252699    -0.12000
C378        C  0.64007618  0.35586150  0.23111155    -0.12000
C379        C  0.61258511  0.32670307  0.21333086     0.10100
C380        C  0.58675293  0.30124526  0.23851644    -0.12000
H381        H  0.56858288  0.28452249  0.29834725     0.14100
H382        H  0.66415484  0.38210530  0.28406359     0.14100
H383        H  0.65980143  0.37654850  0.21273577     0.14100
H384        H  0.56419905  0.27903123  0.22681363     0.14100
C385        C  0.57351623  0.34154520  0.42584458    -0.11900
C386        C  0.55726414  0.34489428  0.44681980    -0.13500
C387        C  0.51755571  0.40503928  0.74337967    -0.15100
C388        C  0.53639119  0.40212465  0.76527176    -0.30300
H389        H  0.50784055  0.41594341  0.75635371     0.13900
H390        H  0.54502035  0.38993847  0.75316924     0.14500
C391        C  0.68105247  0.38715328  0.42529591    -0.11900
C392        C  0.70523010  0.40511693  0.44540437    -0.13500
C393        C  0.79559182  0.42874241  0.74029043    -0.15100
C394        C  0.81527027  0.42626430  0.76079127    -0.30300
H395        H  0.77244250  0.42023668  0.75348007     0.13900
H396        H  0.83758634  0.43335137  0.74673614     0.14500
C397        C  0.38972915  0.42148600  0.51133989    -0.15100
C398        C  0.40044264  0.40900139  0.48893798    -0.30300
H399        H  0.39192051  0.42240988  0.54347719     0.13900
H400        H  0.39862502  0.40845766  0.45676539     0.14500
C401        C  0.36895209  0.52041647  0.24829622    -0.15100
C402        C  0.36673502  0.53971367  0.22588583    -0.30300
H403        H  0.37775916  0.50874555  0.23498429     0.13900
H404        H  0.35656414  0.55030192  0.23843944     0.14500
C405        C  0.38574637  0.72761128  0.54168254    -0.11900
C406        C  0.36801552  0.70323648  0.56255578    -0.13500
C407        C  0.32151059  0.59484070  0.56306184    -0.11900
C408        C  0.32444570  0.57808962  0.54290276    -0.13500
C409        C  0.33830760  0.66030937  0.71565139    -0.12000
C410        C  0.31193383  0.63672117  0.69090257     0.10100
C411        C  0.28263367  0.60859828  0.70907536    -0.12000
C412        C  0.27889523  0.60518621  0.75054577    -0.12000
C413        C  0.30472735  0.62957393  0.77532568     0.10100
C414        C  0.33479344  0.65657673  0.75709913    -0.12000
H415        H  0.36209926  0.68132413  0.70354758     0.14100
H416        H  0.26236299  0.58911291  0.69100016     0.14100
H417        H  0.25596498  0.58291508  0.76257779     0.14100
H418        H  0.35575585  0.67505267  0.77513612     0.14100
C419        C  0.13396759  0.56056671  0.24431853    -0.15100
C420        C  0.10600115  0.53969234  0.22391222    -0.30300
H421        H  0.15743586  0.57001272  0.23108228     0.13900
H422        H  0.08245714  0.52909674  0.23803335     0.14500
C423        C  0.23848030  0.62010354  0.54056567    -0.11900
C424        C  0.25948655  0.62531507  0.56159814    -0.13500
C425        C  0.99245145  0.54093150  0.50317203    -0.15100
C426        C  0.96678399  0.53202919  0.48161820    -0.30300
H427        H  0.99051918  0.53958205  0.53546147     0.13900
H428        H  0.96888438  0.53383702  0.44934674     0.14500
loop_ 
_geom_bond_atom_site_label_1 
_geom_bond_atom_site_label_2 
_geom_bond_distance 
_geom_bond_site_symmetry_2 
_ccdc_geom_bond_type 
N1            N2   1.322       .  A
N1            C5   1.344       .  A
N1           Cu9   2.075       .  S
N2            C3   1.347       .  A
N2           Cu8   2.075       .  S
C3            C4   1.383       .  A
C3            H6   1.082       .  S
C4            C5   1.387       .  A
C4          C419   1.480       .  S
C5            H7   1.081       .  S
Cu8          N11   2.075       .  S
Cu9          N19   2.075       .  S
Cu10         N12   2.075       .  S
Cu10         N18   2.075       .  S
N11          N12   1.324       .  A
N11          C15   1.345       .  A
N12          C13   1.346       .  A
C13          C14   1.379       .  A
C13          H16   1.082       .  S
C14          C15   1.379       .  A
C14         C423   1.436       .  S
C15          H17   1.082       .  S
N18          N19   1.321       .  A
N18          C22   1.345       .  A
N19          C20   1.346       .  A
C20          C21   1.387       .  A
C20          H23   1.081       .  S
C21          C22   1.383       .  A
C21         C425   1.480   1_455  S
C22          H24   1.082       .  S
C25          C26   1.550       .  S
C25          C31   1.539       .  S
C25          C29   1.544       .  S
C25         C410   1.528       .  S
C26          H33   1.083       .  S
C26          C27   1.365       .  D
C27          C28   1.531       .  S
C27         C406   1.442       .  S
C28          C32   1.532       .  S
C28          C30   1.531       .  S
C28          H34   1.112       .  S
C29          H35   1.086       .  S
C29          C30   1.363       .  D
C30         C424   1.440       .  S
C31          H36   1.087       .  S
C31          C32   1.362       .  D
C32         C407   1.441       .  S
N37          N38   1.321       .  A
N37          C41   1.340       .  A
N37         Cu45   2.059       .  S
N38          C39   1.348       .  A
N38         Cu44   2.076       .  S
C39          C40   1.387       .  A
C39          H42   1.082       .  S
C40          C41   1.378       .  A
C40         C401   1.471       .  S
C41          H43   1.082       .  S
Cu44         N47   2.077       .  S
Cu45         N55   2.059       .  S
Cu46         N48   2.078       .  S
Cu46         N54   2.077       .  S
N47          N48   1.325       .  A
N47          C51   1.345       .  A
N48          C49   1.346       .  A
C49          C50   1.379       .  A
C49          H52   1.082       .  S
C50          C51   1.379       .  A
C50         C408   1.437       .  S
C51          H53   1.082       .  S
N54          N55   1.320       .  A
N54          C58   1.346       .  A
N55          C56   1.343       .  A
C56          C57   1.384       .  A
C56          H59   1.081       .  S
C57          C58   1.385       .  A
C57         C397   1.477       .  S
C58          H60   1.082       .  S
N61          N62   1.322       .  A
N61          C65   1.342       .  A
N61         Cu69   2.072       .  S
N62          C63   1.346       .  A
N62         Cu68   2.070       .  S
C63          C64   1.382       .  A
C63          H66   1.082       .  S
C64          C65   1.387       .  A
C64         C393   1.478       .  S
C65          H67   1.081       .  S
Cu68         N71   2.070       .  S
Cu69         N79   2.072       .  S
Cu70         N72   2.082       .  S
Cu70         N78   2.082       .  S
N71          N72   1.324       .  A
N71          C75   1.345       .  A
N72          C73   1.347       .  A
C73          C74   1.381       .  A
C73          H76   1.082       .  S
C74          C75   1.379       .  A
C74         C392   1.438       .  S
C75          H77   1.082       .  S
N78          N79   1.322       .  A
N78          C82   1.346       .  A
N79          C80   1.345       .  A
C80          C81   1.386       .  A
C80          H83   1.081       .  S
C81          C82   1.384       .  A
C81         C426   1.480       .  S
C82          H84   1.082       .  S
N85          N86   1.322       .  A
N85          C89   1.340       .  A
N85         Cu93   2.059       .  S
N86          C87   1.350       .  A
N86         Cu92   2.084       .  S
C87          C88   1.389       .  A
C87          H90   1.082       .  S
C88          C89   1.377       .  A
C88         C387   1.474       .  S
C89          H91   1.082       .  S
Cu92         N95   2.085       .  S
Cu93        N103   2.059       .  S
Cu94         N96   2.080       .  S
Cu94        N102   2.078       .  S
N95          N96   1.325       .  A
N95          C99   1.346       .  A
N96          C97   1.347       .  A
C97          C98   1.379       .  A
C97         H100   1.082       .  S
C98          C99   1.380       .  A
C98         C386   1.440       .  S
C99         H101   1.082       .  S
N102        N103   1.320       .  A
N102        C106   1.346       .  A
N103        C104   1.343       .  A
C104        C105   1.384       .  A
C104        H107   1.081       .  S
C105        C106   1.385       .  A
C105        C398   1.477       .  S
C106        H108   1.082       .  S
C109        C110   1.549       .  S
C109        C115   1.541       .  S
C109        C113   1.544       .  S
C109        C376   1.531       .  S
C110        H117   1.083       .  S
C110        C111   1.363       .  D
C111        C112   1.531       .  S
C111        C391   1.442       .  S
C112        C116   1.533       .  S
C112        C114   1.533       .  S
C112        H118   1.112       .  S
C113        H119   1.086       .  S
C113        C114   1.363       .  D
C114        C374   1.444       .  S
C115        H120   1.086       .  S
C115        C116   1.364       .  D
C116        C385   1.444       .  S
N121        N122   1.322       .  A
N121        C125   1.341       .  A
N121       Cu129   2.062       .  S
N122        C123   1.347       .  A
N122       Cu128   2.078       .  S
C123        C124   1.387       .  A
C123        H126   1.081       .  S
C124        C125   1.379       .  A
C124        C370   1.473       .  S
C125        H127   1.082       .  S
Cu128       N131   2.079       .  S
Cu129       N139   2.061       .  S
Cu130       N132   2.077       .  S
Cu130       N138   2.077       .  S
N131        N132   1.324       .  A
N131        C135   1.346       .  A
N132        C133   1.346       .  A
C133        C134   1.379       .  A
C133        H136   1.082       .  S
C134        C135   1.380       .  A
C134        C405   1.438       .  S
C135        H137   1.082       .  S
N138        N139   1.321       .  A
N138        C142   1.346       .  A
N139        C140   1.343       .  A
C140        C141   1.384       .  A
C140        H143   1.081       .  S
C141        C142   1.384       .  A
C141        C365   1.477       .  S
C142        H144   1.082       .  S
N145        N146   1.321       .  A
N145        C149   1.340       .  A
N145       Cu153   2.057       .  S
N146        C147   1.348       .  A
N146       Cu152   2.080       .  S
C147        C148   1.387       .  A
C147        H150   1.082       .  S
C148        C149   1.378       .  A
C148        C361   1.472       .  S
C149        H151   1.082       .  S
Cu152       N155   2.080       .  S
Cu153       N163   2.057       .  S
Cu154       N156   2.083       .  S
Cu154       N162   2.083       .  S
N155        N156   1.325       .  A
N155        C159   1.346       .  A
N156        C157   1.347       .  A
C157        C158   1.381       .  A
C157        H160   1.082       .  S
C158        C159   1.379       .  A
C158        C373   1.440       .  S
C159        H161   1.082       .  S
N162        N163   1.321       .  A
N162        C166   1.346       .  A
N163        C164   1.343       .  A
C164        C165   1.384       .  A
C164        H167   1.081       .  S
C165        C166   1.385       .  A
C165        C366   1.477       .  S
C166        H168   1.082       .  S
N169        N170   1.320       .  A
N169        C173   1.341       .  A
N169       Cu177   2.062       .  S
N170        C171   1.347       .  A
N170       Cu176   2.073       .  S
C171        C172   1.385       .  A
C171        H174   1.082       .  S
C172        C173   1.386       .  A
C172        C388   1.480       .  S
C173        H175   1.081       .  S
Cu176       N179   2.074       .  S
Cu177       N187   2.061       .  S
Cu178       N180   2.081       .  S
Cu178       N186   2.080   1_554  S
N179        N180   1.325   1_556  A
N179        C183   1.344       .  A
N180        C181   1.347       .  A
C181        C182   1.380       .  A
C181        H184   1.082       .  S
C182        C183   1.377   1_554  A
C182        C355   1.436       .  S
C183        H185   1.082       .  S
N186        N187   1.321       .  A
N186        C190   1.346   1_556  A
N187        C188   1.342       .  A
C188        C189   1.383       .  A
C188        H191   1.081       .  S
C189        C190   1.385   1_556  A
C189        C357   1.477   1_556  S
C190        H192   1.082       .  S
N193        N194   1.321       .  A
N193        C197   1.340       .  A
N193       Cu201   2.059       .  S
N194        C195   1.347       .  A
N194       Cu200   2.072       .  S
C195        C196   1.384       .  A
C195        H198   1.082       .  S
C196        C197   1.384       .  A
C196        C402   1.477       .  S
C197        H199   1.081       .  S
Cu200       N203   2.073       .  S
Cu201       N211   2.058       .  S
Cu202       N204   2.079       .  S
Cu202       N210   2.078       .  S
N203        N204   1.325   1_554  A
N203        C207   1.344   1_554  A
N204        C205   1.347       .  A
C205        C206   1.380       .  A
C205        H208   1.082       .  S
C206        C207   1.377       .  A
C206        C354   1.436       .  S
C207        H209   1.082   1_556  S
N210        N211   1.321   1_556  A
N210        C214   1.346       .  A
N211        C212   1.343       .  A
C212        C213   1.384   1_554  A
C212        H215   1.081       .  S
C213        C214   1.385       .  A
C213        C358   1.476       .  S
C214        H216   1.082       .  S
C217        C218   1.551       .  S
C217        C223   1.539       .  S
C217        C221   1.544       .  S
C217        C413   1.528       .  S
C218        H225   1.083       .  S
C218        C219   1.365       .  D
C219        C220   1.530       .  S
C219        C351   1.443       .  S
C220        C224   1.532       .  S
C220        C222   1.531       .  S
C220        H226   1.112       .  S
C221        H227   1.086       .  S
C221        C222   1.362       .  D
C222        C350   1.441       .  S
C223        H228   1.086       .  S
C223        C224   1.362       .  D
C224        C353   1.440       .  S
N229        N230   1.321       .  A
N229        C233   1.341       .  A
N229       Cu237   2.059       .  S
N230        C231   1.349       .  A
N230       Cu236   2.084       .  S
C231        C232   1.389       .  A
C231        H234   1.081       .  S
C232        C233   1.378       .  A
C232        C420   1.475       .  S
C233        H235   1.082       .  S
Cu236       N239   2.085       .  S
Cu237       N247   2.058       .  S
Cu238       N240   2.078       .  S
Cu238       N246   2.077       .  S
N239        N240   1.325   1_554  A
N239        C243   1.346   1_554  A
N240        C241   1.346       .  A
C241        C242   1.379       .  A
C241        H244   1.082       .  S
C242        C243   1.380       .  A
C242        C352   1.439       .  S
C243        H245   1.082   1_556  S
N246        N247   1.320   1_556  A
N246        C250   1.346       .  A
N247        C248   1.341   1_455  A
C248        C249   1.384   1_554  A
C248        H251   1.081       .  S
C249        C250   1.385   1_655  A
C249        C345   1.477       .  S
C250        H252   1.082       .  S
N253        N254   1.321       .  A
N253        C257   1.341       .  A
N253       Cu261   2.061       .  S
N254        C255   1.347       .  A
N254       Cu260   2.076       .  S
C255        C256   1.384       .  A
C255        H258   1.082       .  S
C256        C257   1.384       .  A
C256        C369   1.478       .  S
C257        H259   1.081       .  S
Cu260       N263   2.077       .  S
Cu261       N271   2.061       .  S
Cu262       N264   2.078       .  S
Cu262       N270   2.078   1_556  S
N263        N264   1.325   1_554  A
N263        C267   1.345   1_554  A
N264        C265   1.346       .  A
C265        C266   1.379       .  A
C265        H268   1.082       .  S
C266        C267   1.379       .  A
C266        C349   1.437       .  S
C267        H269   1.082   1_556  S
N270        N271   1.321       .  A
N270        C274   1.346   1_554  A
N271        C272   1.343       .  A
C272        C273   1.384       .  A
C272        H275   1.081       .  S
C273        C274   1.384   1_554  A
C273        C342   1.477   1_554  S
C274        H276   1.082       .  S
N277        N278   1.321       .  A
N277        C281   1.341       .  A
N277       Cu285   2.063       .  S
N278        C279   1.347       .  A
N278       Cu284   2.077       .  S
C279        C280   1.384       .  A
C279        H282   1.082       .  S
C280        C281   1.385       .  A
C280        C362   1.479       .  S
C281        H283   1.081       .  S
Cu284       N287   2.078       .  S
Cu285       N295   2.063       .  S
Cu286       N288   2.076       .  S
Cu286       N294   2.075   1_554  S
N287        N288   1.324   1_556  A
N287        C291   1.346       .  A
N288        C289   1.346       .  A
C289        C290   1.379       .  A
C289        H292   1.082       .  S
C290        C291   1.379   1_554  A
C290        C340   1.437       .  S
C291        H293   1.082       .  S
N294        N295   1.321       .  A
N294        C298   1.345   1_556  A
N295        C296   1.343       .  A
C296        C297   1.385       .  A
C296        H299   1.081       .  S
C297        C298   1.384   1_556  A
C297        C341   1.476   1_546  S
C298        H300   1.082       .  S
C301        C302   1.550       .  S
C301        C307   1.539       .  S
C301        C305   1.546       .  S
C301        C379   1.529       .  S
C302        H309   1.083       .  S
C302        C303   1.364       .  D
C303        C304   1.531       .  S
C303        C339   1.442       .  S
C304        C308   1.531       .  S
C304        C306   1.530       .  S
C304        H310   1.112       .  S
C305        H311   1.086       .  S
C305        C306   1.364       .  D
C306        C338   1.442       .  S
C307        H312   1.086       .  S
C307        C308   1.362       .  D
C308        C356   1.440       .  S
N313        N314   1.322       .  A
N313        C317   1.339       .  A
N313       Cu321   2.054       .  S
N314        C315   1.349       .  A
N314       Cu320   2.084       .  S
C315        C316   1.389       .  A
C315        H318   1.082       .  S
C316        C317   1.376       .  A
C316        C394   1.472       .  S
C317        H319   1.082       .  S
Cu320       N323   2.085       .  S
Cu321       N331   2.053       .  S
Cu322       N324   2.075       .  S
Cu322       N330   2.074   1_554  S
N323        N324   1.325   1_556  A
N323        C327   1.347       .  A
N324        C325   1.345       .  A
C325        C326   1.378       .  A
C325        H328   1.082       .  S
C326        C327   1.381   1_554  A
C326        C337   1.438       .  S
C327        H329   1.082       .  S
N330        N331   1.320       .  A
N330        C334   1.345   1_556  A
N331        C332   1.343       .  A
C332        C333   1.384       .  A
C332        H335   1.081       .  S
C333        C334   1.384   1_556  A
C333        C346   1.475   1_556  S
C334        H336   1.082       .  S
C337        C338   1.206       .  T
C339        C340   1.206       .  T
C341        H343   1.085       .  S
C341        C342   1.345   1_554  D
C342        H344   1.085       .  S
C345        H347   1.085       .  S
C345        C346   1.345   1_556  D
C346        H348   1.084       .  S
C349        C350   1.205       .  T
C351        C352   1.207       .  T
C353        C354   1.205       .  T
C355        C356   1.205       .  T
C357        H359   1.085       .  S
C357        C358   1.346   1_554  D
C358        H360   1.085       .  S
C361        H363   1.084       .  S
C361        C362   1.343       .  D
C362        H364   1.086       .  S
C365        H367   1.085       .  S
C365        C366   1.346   1_565  D
C366        H368   1.085       .  S
C369        H371   1.085       .  S
C369        C370   1.343       .  D
C370        H372   1.085       .  S
C373        C374   1.207       .  T
C375        C376   1.408       .  A
C375        C380   1.399       .  A
C375        H381   1.083       .  S
C376        C377   1.409       .  A
C377        C378   1.398       .  A
C377        H382   1.078       .  S
C378        C379   1.407       .  A
C378        H383   1.083       .  S
C379        C380   1.409       .  A
C380        H384   1.078       .  S
C385        C386   1.207       .  T
C387        H389   1.085       .  S
C387        C388   1.342       .  D
C388        H390   1.086       .  S
C391        C392   1.206       .  T
C393        H395   1.086       .  S
C393        C394   1.341       .  D
C394        H396   1.085       .  S
C397        H399   1.085       .  S
C397        C398   1.345       .  D
C398        H400   1.085       .  S
C401        H403   1.085       .  S
C401        C402   1.342       .  D
C402        H404   1.085       .  S
C405        C406   1.206       .  T
C407        C408   1.205       .  T
C409        C410   1.408       .  A
C409        C414   1.398       .  A
C409        H415   1.079       .  S
C410        C411   1.408       .  A
C411        C412   1.398       .  A
C411        H416   1.083       .  S
C412        C413   1.408       .  A
C412        H417   1.078       .  S
C413        C414   1.408       .  A
C414        H418   1.083       .  S
C419        H421   1.086       .  S
C419        C420   1.343       .  D
C420        H422   1.085       .  S
C423        C424   1.205       .  T
C425        H427   1.085       .  S
C425        C426   1.345       .  D
C426        H428   1.085       .  S
