geometry optimzed in LAMMPS
_audit_creation_date              2020-12-01 
_audit_creation_method            'lammps2cif' 
_symmetry_space_group_name_H-M    'P1' 
_symmetry_Int_Tables_number       1 
_symmetry_cell_setting            triclinic 
loop_ 
_symmetry_equiv_pos_as_xyz 
  x,y,z 
_cell_length_a                    49.96334021 
_cell_length_b                    49.54270306952691 
_cell_length_c                    34.33247192420479 
_cell_angle_alpha                 90.18993956259268 
_cell_angle_beta                  89.8579491613091 
_cell_angle_gamma                 121.33494879987305 
loop_ 
_atom_site_label 
_atom_site_type_symbol 
_atom_site_fract_x 
_atom_site_fract_y 
_atom_site_fract_z 
_atom_site_charge 
C1          C  0.33221343  0.16847080  0.87029452    -0.02400
C2          C  0.32919256  0.16804559  0.82053534    -0.02400
C3          C  0.16145672  0.33980922  0.32722776    -0.02400
C4          C  0.16081983  0.33807036  0.37678825    -0.02400
O5          O  0.49543088  0.44534652  0.05082740    -0.78400
C6          C  0.07061484  0.04377493  0.04132184     0.82700
O7          O  0.02281834  0.48746949  0.18430020    -0.79500
O8          O  0.02773239  0.07845855  0.12441754    -0.81000
O9          O  0.43997393  0.00249332  0.04855834    -0.80800
O10         O  0.44770871  0.43835383  0.04795156    -0.79400
Zn11       Zn  0.02117869  0.48405762  0.08491560     1.55700
O12         O  0.48343398  0.05013025  0.04486607    -0.80800
Cd13       Cd  0.45255243  0.47567124  0.08169496     1.59700
Cd14       Cd  0.49584480  0.00384646  0.15975662     1.59600
O15         O  0.42108162  0.45717233  0.12790635    -0.80800
O16         O  0.49667239  0.00237377  0.10117445    -1.91300
Cd17       Cd  0.01591204  0.04628991  0.07914046     1.59900
O18         O  0.45050360  0.47629610  0.18122029    -0.80700
O19         O  0.05693236  0.05917035  0.04748707    -0.79400
C20         C  0.03713555  0.47510579  0.16864801     0.83100
C21         C  0.46715517  0.42999907  0.03874561     0.82800
O22         O  0.05906896  0.01570003  0.05406116    -0.78400
C23         C  0.45451584  0.03110900  0.03682230     0.83600
O24         O  0.03741532  0.47195380  0.13175451    -0.78400
C25         C  0.42381435  0.45974732  0.16490560     0.83700
C26         C  0.02468556  0.07621986  0.16140745     0.84100
O27         O  0.01294240  0.04970875  0.17879198    -0.80900
O28         O  0.01320456  0.06514933  0.54412315    -0.78400
C29         C  0.42481244  0.47678965  0.53672630     0.82700
O30         O  0.47842486  0.03558448  0.67867102    -0.79500
O31         O  0.44734105  0.43005081  0.62776058    -0.81000
O32         O  0.04285695  0.48881422  0.55049745    -0.80800
O33         O  0.05599121  0.06226792  0.55027761    -0.79400
Zn34       Zn  0.48039566  0.03147711  0.57949787     1.55700
O35         O  0.99442440  0.44667517  0.54879254    -0.80800
Cd36       Cd  0.03965505  0.02193427  0.58414230     1.59700
Cd37       Cd  0.49357429  0.00561555  0.65980042     1.59600
O38         O  0.06908224  0.03315699  0.63189956    -0.80800
O39         O  0.49531086  0.00525076  0.60114164    -1.91300
Cd40       Cd  0.46844272  0.46089211  0.58135708     1.59900
O41         O  0.03804153  0.02316111  0.68344186    -0.80700
O42         O  0.43284287  0.45709887  0.54621432    -0.79400
C43         C  0.47126637  0.05315658  0.65986147     0.83100
C44         C  0.04185336  0.07527662  0.53614190     0.82800
O45         O  0.44049779  0.50550993  0.54802491    -0.78400
C46         C  0.02334218  0.46064720  0.53928715     0.83600
O47         O  0.47141954  0.05361823  0.62269967    -0.78400
C48         C  0.06500754  0.03275809  0.66865855     0.83700
C49         C  0.44754964  0.43299934  0.66475353     0.84100
O50         O  0.46371011  0.45993151  0.68139900    -0.80900
C51         C  0.19508397  0.35490787  0.39467750    -0.03100
C52         C  0.20438467  0.34000251  0.42227286    -0.05700
C53         C  0.23468219  0.35492109  0.43719180    -0.20800
C54         C  0.25698033  0.38602512  0.42725447     0.25000
C55         C  0.24809054  0.40225819  0.40201834    -0.18300
C56         C  0.21762317  0.38713537  0.38654516    -0.08300
C57         C  0.28892111  0.39988499  0.44422323    -0.18600
C58         C  0.31009557  0.43103643  0.44793506    -0.23400
C59         C  0.34055525  0.44315573  0.46862510     0.27000
C60         C  0.35525870  0.47317316  0.48616307    -0.20100
C61         C  0.38287577  0.48440952  0.50776862    -0.09800
C62         C  0.39644512  0.46583520  0.51226674    -0.10300
C63         C  0.38233546  0.43629255  0.49355970    -0.03300
C64         C  0.35495213  0.42520935  0.47174511    -0.18400
H65         H  0.18853648  0.31687184  0.43398059     0.10700
H66         H  0.24052628  0.34206186  0.45750553     0.10800
H67         H  0.26457239  0.42643313  0.39370927     0.10500
H68         H  0.21177234  0.40074017  0.36780752     0.11600
H69         H  0.29421260  0.38316729  0.45692941     0.11700
H70         H  0.30409169  0.44810798  0.43846166     0.13600
H71         H  0.34494530  0.48767671  0.48391950     0.10100
H72         H  0.39323191  0.50736844  0.52160439     0.12200
H73         H  0.39247420  0.42163417  0.49575722     0.08800
H74         H  0.34528624  0.40258636  0.45732394     0.11500
C75         C  0.03482636  0.44390248  0.51466038    -0.03100
C76         C  0.01506924  0.41193197  0.50433265    -0.05700
C77         C  0.02650437  0.39618105  0.48220234    -0.20800
C78         C  0.05793486  0.41190274  0.46997555     0.25000
C79         C  0.07732191  0.44425017  0.47902814    -0.18300
C80         C  0.06598042  0.45989971  0.50128340    -0.08300
C81         C  0.06979594  0.39389306  0.44835047    -0.18600
C82         C  0.10034618  0.40287887  0.44804973    -0.23400
C83         C  0.11366337  0.38492741  0.42998532     0.27000
C84         C  0.14360368  0.39276815  0.44175248    -0.20100
C85         C  0.15814249  0.37771314  0.42591475    -0.09800
C86         C  0.14408252  0.35478681  0.39575089    -0.10300
C87         C  0.11285079  0.34578391  0.38581557    -0.03300
C88         C  0.09812318  0.36088002  0.40207177    -0.18400
H89         H  0.99086299  0.39892494  0.51379856     0.10700
H90         H  0.01088398  0.37142092  0.47529961     0.10800
H91         H  0.10127190  0.45779906  0.46885842     0.10500
H92         H  0.08174809  0.48466261  0.50800721     0.11600
H93         H  0.05265515  0.37165582  0.43493335     0.11700
H94         H  0.11679617  0.42384924  0.46428218     0.13600
H95         H  0.15588026  0.41052706  0.46408693     0.10100
H96         H  0.18033769  0.38424375  0.43884887     0.12200
H97         H  0.09975392  0.32721614  0.36492527     0.08800
H98         H  0.07482887  0.35385165  0.39226554     0.11500
C99         C  0.14293875  0.30269688  0.39211756    -0.03100
C100        C  0.11813138  0.29098487  0.41974110    -0.05700
C101        C  0.10283177  0.25983799  0.43286673    -0.20800
C102        C  0.11237648  0.23917639  0.42089448     0.25000
C103        C  0.13761807  0.25022251  0.39495933    -0.18300
C104        C  0.15267428  0.28134807  0.38107999    -0.08300
C105        C  0.09511698  0.20642042  0.43635887    -0.18600
C106        C  0.10828294  0.18907977  0.44322298    -0.23400
C107        C  0.09113514  0.15832940  0.46420284     0.27000
C108        C  0.10779146  0.14932284  0.48837792    -0.20100
C109        C  0.09192346  0.12194143  0.51114910    -0.09800
C110        C  0.05903711  0.10301544  0.51013280    -0.10300
C111        C  0.04251648  0.11128227  0.48461926    -0.03300
C112        C  0.05836755  0.13844685  0.46167190    -0.18400
H113        H  0.11031151  0.30550005  0.43275624     0.10700
H114        H  0.08378710  0.25206507  0.45353699     0.10800
H115        H  0.14555582  0.23480547  0.38494883     0.10500
H116        H  0.17208857  0.28861835  0.36153582     0.11600
H117        H  0.07130609  0.19758500  0.44622614     0.11700
H118        H  0.13302149  0.19907939  0.43712734     0.13600
H119        H  0.13305025  0.16405986  0.49062798     0.10100
H120        H  0.10531336  0.11610914  0.53041098     0.12200
H121        H  0.01723368  0.09679581  0.48253482     0.08800
H122        H  0.04484269  0.14393296  0.44222139     0.11500
C123        C  0.14513274  0.30575072  0.30789972    -0.03100
C124        C  0.15928236  0.29808678  0.27724408    -0.05700
C125        C  0.14369947  0.26893599  0.25846221    -0.20800
C126        C  0.11295522  0.24604591  0.26824687     0.25000
C127        C  0.09783828  0.25303932  0.29757187    -0.18300
C128        C  0.11346595  0.28241024  0.31657242    -0.08300
C129        C  0.09750111  0.21637801  0.24495562    -0.18600
C130        C  0.07041423  0.18983745  0.25425407    -0.23400
C131        C  0.05730561  0.16090767  0.22968418     0.27000
C132        C  0.04014100  0.13109572  0.24725959    -0.20100
C133        C  0.02935160  0.10354352  0.22513653    -0.09800
C134        C  0.03516458  0.10527301  0.18480880    -0.10300
C135        C  0.05120057  0.13512535  0.16699745    -0.03300
C136        C  0.06205055  0.16260099  0.18910791    -0.18400
H137        H  0.18202342  0.31466353  0.26544402     0.10700
H138        H  0.15570078  0.26459991  0.23518083     0.10800
H139        H  0.07366009  0.23649400  0.30511766     0.10500
H140        H  0.10030426  0.28710945  0.33752646     0.11600
H141        H  0.11005329  0.21610650  0.21923165     0.11700
H142        H  0.05871864  0.18836797  0.28151466     0.13600
H143        H  0.03579137  0.12914259  0.27834863     0.10100
H144        H  0.51668035  0.08090420  0.23970269     0.12200
H145        H  0.05567834  0.13733611  0.13594445     0.08800
H146        H  0.07409069  0.18512285  0.17425944     0.11500
C147        C  0.39512124  0.44359204  0.18947639    -0.03100
C148        C  0.39714538  0.44353376  0.23037664    -0.05700
C149        C  0.36997696  0.42943718  0.25336790    -0.20800
C150        C  0.34026894  0.41561128  0.23606316     0.25000
C151        C  0.33820487  0.41492284  0.19516408    -0.18300
C152        C  0.36527656  0.42872823  0.17219897    -0.08300
C153        C  0.31175424  0.40173594  0.26106403    -0.18600
C154        C  0.28602906  0.40216970  0.25046483    -0.23400
C155        C  0.25645122  0.38821764  0.27340013     0.27000
C156        C  0.23520031  0.39755508  0.26442045    -0.20100
C157        C  0.20575757  0.38326479  0.28200840    -0.09800
C158        C  0.19606001  0.35893306  0.31024716    -0.10300
C159        C  0.21809263  0.34975405  0.31871344    -0.03300
C160        C  0.24770506  0.36425484  0.30104295    -0.18400
H161        H  0.41973350  0.45457085  0.24466842     0.10700
H162        H  0.37218907  0.42993739  0.28478023     0.10800
H163        H  0.31565966  0.40351411  0.18076636     0.10500
H164        H  0.36278062  0.42806648  0.14083123     0.11600
H165        H  0.31268319  0.39256754  0.28936285     0.11700
H166        H  0.28683343  0.41421138  0.22370136     0.13600
H167        H  0.24103269  0.41553940  0.24257222     0.10100
H168        H  0.19057249  0.39088041  0.27108946     0.12200
H169        H  0.21222011  0.33055830  0.33828715     0.08800
H170        H  0.26301726  0.35557945  0.30792793     0.11500
C171        C  0.14363230  0.35607606  0.31048622    -0.03100
C172        C  0.12106549  0.34214752  0.28010526    -0.05700
C173        C  0.10671607  0.35712997  0.26400092    -0.20800
C174        C  0.11453556  0.38725692  0.27606525     0.25000
C175        C  0.13737393  0.40232934  0.30519392    -0.18300
C176        C  0.15197332  0.38721832  0.32161124    -0.08300
C177        C  0.10011875  0.40245261  0.25427620    -0.18600
C178        C  0.09938622  0.42810239  0.26563847    -0.23400
C179        C  0.08452839  0.44132692  0.24069527     0.27000
C180        C  0.06897804  0.45518664  0.25782210    -0.20100
C181        C  0.05364700  0.46631115  0.23459207    -0.09800
C182        C  0.05386913  0.46409511  0.19367713    -0.10300
C183        C  0.07034972  0.45115459  0.17664995    -0.03300
C184        C  0.08557156  0.44006991  0.19978132    -0.18400
H185        H  0.11477770  0.32004591  0.26639851     0.10700
H186        H  0.08987257  0.34523344  0.24078062     0.10800
H187        H  0.14489134  0.42614704  0.31436312     0.10500
H188        H  0.17028406  0.40027062  0.34265380     0.11600
H189        H  0.08840315  0.39094120  0.22725343     0.11700
H190        H  0.10820428  0.43851733  0.29410330     0.13600
H191        H  0.06810257  0.45676675  0.28922650     0.10100
H192        H  0.04140625  0.47639032  0.24869548     0.12200
H193        H  0.07147609  0.44948833  0.14529640     0.08800
H194        H  0.09832663  0.43066349  0.18544497     0.11500
C195        C  0.46242313  0.07349375  0.68145354    -0.03100
C196        C  0.46387792  0.07544017  0.72238349    -0.05700
C197        C  0.45443689  0.09380575  0.74248769    -0.20800
C198        C  0.44295396  0.11026868  0.72221837     0.25000
C199        C  0.44268847  0.10934772  0.68123604    -0.18300
C200        C  0.45223967  0.09115963  0.66115613    -0.08300
C201        C  0.42995232  0.12684061  0.74441103    -0.18600
C202        C  0.40525764  0.12797248  0.73106349    -0.23400
C203        C  0.38739478  0.13841247  0.75476513     0.27000
C204        C  0.35511091  0.12250179  0.74975175    -0.20100
C205        C  0.33698628  0.13176732  0.76988835    -0.09800
C206        C  0.34973122  0.15638070  0.79844417    -0.10300
C207        C  0.38303284  0.17493312  0.79809513    -0.03300
C208        C  0.40152089  0.16531872  0.77854315    -0.18400
H209        H  0.47194999  0.06246465  0.73894568     0.10700
H210        H  0.45512327  0.09430707  0.77402600     0.10800
H211        H  0.43493525  0.12253283  0.66455801     0.10500
H212        H  0.45122708  0.09063553  0.62964115     0.11600
H213        H  0.43820170  0.13477225  0.77390806     0.11700
H214        H  0.39500146  0.11691916  0.70327463     0.13600
H215        H  0.34377790  0.10328156  0.72892123     0.10100
H216        H  0.31353390  0.12096577  0.75891745     0.12200
H217        H  0.39525724  0.19783000  0.81148716     0.08800
H218        H  0.42681146  0.17987999  0.78028387     0.11500
C219        C  0.42864895  0.40407225  0.68869263    -0.03100
C220        C  0.43363491  0.40406469  0.72900948    -0.05700
C221        C  0.41717363  0.37601901  0.75059880    -0.20800
C222        C  0.39538632  0.34738590  0.73244745     0.25000
C223        C  0.38921739  0.34784738  0.69251777    -0.18300
C224        C  0.40582500  0.37571582  0.67094079    -0.08300
C225        C  0.38019151  0.31746611  0.75557851    -0.18600
C226        C  0.36929649  0.28886721  0.73899320    -0.23400
C227        C  0.35753829  0.25874792  0.76072525     0.27000
C228        C  0.35730904  0.23380191  0.74138591    -0.20100
C229        C  0.34786016  0.20540561  0.76034146    -0.09800
C230        C  0.33932709  0.20077674  0.80043293    -0.10300
C231        C  0.33569162  0.22473214  0.81767204    -0.03300
C232        C  0.34567431  0.25364041  0.79886224    -0.18400
H233        H  0.45086952  0.42553196  0.74368405     0.10700
H234        H  0.42214146  0.37652706  0.78137646     0.10800
H235        H  0.37163294  0.32676862  0.67760988     0.10500
H236        H  0.40084837  0.37497432  0.64014029     0.11600
H237        H  0.38053979  0.31940475  0.78709687     0.11700
H238        H  0.37161160  0.28754812  0.70773236     0.13600
H239        H  0.36471972  0.23627758  0.71124389     0.10100
H240        H  0.34744030  0.18709319  0.74276131     0.12200
H241        H  0.32556725  0.22159618  0.84595275     0.08800
H242        H  0.34345082  0.27156721  0.81398427     0.11500
C243        C  0.09255324  0.04444267  0.69474239    -0.03100
C244        C  0.09202742  0.05504051  0.73262612    -0.05700
C245        C  0.11893281  0.06860773  0.75594885    -0.20800
C246        C  0.14664627  0.07108542  0.74236681     0.25000
C247        C  0.14691138  0.05956148  0.70496455    -0.18300
C248        C  0.12021791  0.04658484  0.68133743    -0.08300
C249        C  0.17577187  0.08885670  0.76580399    -0.18600
C250        C  0.19910538  0.08277539  0.76481557    -0.23400
C251        C  0.23021403  0.10407274  0.78293945     0.27000
C252        C  0.24796878  0.09179780  0.79702118    -0.20100
C253        C  0.27859941  0.11197656  0.81048198    -0.09800
C254        C  0.29350314  0.14538937  0.80845325    -0.10300
C255        C  0.27427242  0.15702216  0.79571152    -0.03300
C256        C  0.24350355  0.13686179  0.78319556    -0.18400
H257        H  0.07115733  0.05390375  0.74372819     0.10700
H258        H  0.11825786  0.07764577  0.78447821     0.10800
H259        H  0.16811463  0.06183101  0.69322576     0.10500
H260        H  0.12138658  0.03865514  0.65229521     0.11600
H261        H  0.17820292  0.10793466  0.78411823     0.11700
H262        H  0.19559066  0.06188911  0.74966628     0.13600
H263        H  0.23822475  0.06650279  0.79735088     0.10100
H264        H  0.29140096  0.10133777  0.82112633     0.12200
H265        H  0.28238656  0.18180932  0.79463975     0.08800
H266        H  0.23056790  0.14722833  0.77218459     0.11500
C267        C  0.43699472  0.04272178  0.01423898    -0.03100
C268        C  0.40525737  0.02220843  0.00450886    -0.05700
C269        C  0.38822463  0.03350551  0.98542856    -0.20800
C270        C  0.40241228  0.06552705  0.97526442     0.25000
C271        C  0.43422789  0.08606350  0.98488147    -0.18300
C272        C  0.45126749  0.07476574  0.00393905    -0.08300
C273        C  0.38295053  0.07689427  0.95666489    -0.18600
C274        C  0.39524335  0.10375505  0.93561301    -0.23400
C275        C  0.37710920  0.11718667  0.91842476     0.27000
C276        C  0.39312107  0.14371060  0.89463020    -0.20100
C277        C  0.37848618  0.15921823  0.88054984    -0.09800
C278        C  0.34621519  0.14798354  0.88619247    -0.10300
C279        C  0.33152296  0.12303197  0.91402317    -0.03300
C280        C  0.34609799  0.10727196  0.92854941    -0.18400
H281        H  0.39337215  0.99741303  0.01211597     0.10700
H282        H  0.36375408  0.01714300  0.97877130     0.10800
H283        H  0.44594051  0.11109031  0.97889347     0.10500
H284        H  0.47551031  0.09135789  0.01137554     0.11600
H285        H  0.35773777  0.06217827  0.95994647     0.11700
H286        H  0.42028054  0.11686694  0.93013131     0.13600
H287        H  0.41784519  0.15382251  0.88866969     0.10100
H288        H  0.39393996  0.18223423  0.86880712     0.12200
H289        H  0.31019885  0.11700916  0.92874328     0.08800
H290        H  0.33355996  0.08876857  0.94977269     0.11500
C291        C  0.45664763  0.40167441  0.01367009    -0.03100
C292        C  0.47857326  0.39554328  0.99648537    -0.05700
C293        C  0.46864305  0.36846827  0.97362247    -0.20800
C294        C  0.43661762  0.34654354  0.96819336     0.25000
C295        C  0.41465789  0.35292919  0.98467755    -0.18300
C296        C  0.42457117  0.38024953  0.00699080    -0.08300
C297        C  0.42658723  0.31729786  0.94510000    -0.18600
C298        C  0.40129445  0.28935183  0.95518646    -0.24800
C299        C  0.38930856  0.25910734  0.93344549     0.27000
C300        C  0.36886767  0.23089152  0.95271905    -0.20100
C301        C  0.35312695  0.20234864  0.93239247    -0.09800
C302        C  0.35527752  0.20101331  0.89123705    -0.10300
C303        C  0.37993874  0.22870499  0.87362943    -0.03300
C304        C  0.39589675  0.25754009  0.89397691    -0.18400
H305        H  0.50346049  0.41169099  0.00070041     0.10700
H306        H  0.48600780  0.36425524  0.96088622     0.10800
H307        H  0.38979448  0.33690711  0.98012488     0.10500
H308        H  0.40706160  0.38433953  0.01949920     0.11600
H309        H  0.44133239  0.31856461  0.92106058     0.11700
H310        H  0.38873674  0.28833505  0.98157285     0.13600
H311        H  0.36428076  0.23098632  0.98356354     0.10100
H312        H  0.33720632  0.18131117  0.94872058     0.12200
H313        H  0.38654718  0.22919924  0.84384652     0.08800
H314        H  0.41243884  0.27860120  0.87820603     0.11500
C315        C  0.10077776  0.05844264  0.01933370    -0.03100
C316        C  0.11512691  0.04087409  0.01230721    -0.05700
C317        C  0.14370582  0.05418701  0.99264896    -0.20800
C318        C  0.15900840  0.08547707  0.97918987     0.25000
C319        C  0.14473486  0.10326459  0.98597814    -0.18300
C320        C  0.11591945  0.08984272  0.00586581    -0.08300
C321        C  0.18981434  0.09789924  0.95904249    -0.18600
C322        C  0.20667447  0.12610136  0.94091415    -0.23400
C323        C  0.23737688  0.13635623  0.92148918     0.27000
C324        C  0.25978129  0.16853519  0.91761910    -0.20100
C325        C  0.28934549  0.17865499  0.90136108    -0.09800
C326        C  0.29821060  0.15702059  0.88828635    -0.10300
C327        C  0.27427666  0.12467538  0.89104870    -0.03300
C328        C  0.24475645  0.11459777  0.90681749    -0.18400
H329        H  0.10434448  0.01667384  0.02218348     0.10700
H330        H  0.15395814  0.03980413  0.98799318     0.10800
H331        H  0.15569146  0.12752016  0.97649966     0.10500
H332        H  0.10562351  0.10411930  0.01093422     0.11600
H333        H  0.19928012  0.08255105  0.95974059     0.11700
H334        H  0.19864630  0.14264261  0.94125093     0.13600
H335        H  0.25472861  0.18605583  0.92816337     0.10100
H336        H  0.30546236  0.20382062  0.90107504     0.12200
H337        H  0.27813133  0.10620783  0.88178688     0.08800
H338        H  0.22777838  0.08949234  0.90727565     0.11500
C339        C  0.33221349  0.66847084  0.87029453    -0.02400
C340        C  0.32919259  0.66804561  0.82053534    -0.02400
C341        C  0.16145666  0.83980921  0.32722776    -0.02400
C342        C  0.16081976  0.83807032  0.37678825    -0.02400
O343        O  0.49543088  0.94534656  0.05082745    -0.78400
C344        C  0.07061484  0.54377486  0.04132184     0.82700
O345        O  0.02281825  0.98746940  0.18430024    -0.79500
O346        O  0.02773240  0.57845856  0.12441746    -0.81000
O347        O  0.43997395  0.50249340  0.04855830    -0.80800
O348        O  0.44770870  0.93835383  0.04795161    -0.79400
Zn349      Zn  0.02117871  0.98405770  0.08491574     1.55700
O350        O  0.48343401  0.55013032  0.04486608    -0.80800
Cd351      Cd  0.45255240  0.97567119  0.08169515     1.59700
Cd352      Cd  0.49584484  0.50384649  0.15975655     1.59600
O353        O  0.42108157  0.95717230  0.12790648    -0.80800
O354        O  0.49667237  0.50237370  0.10117433    -1.91300
Cd355      Cd  0.01591199  0.54628983  0.07914044     1.59900
O356        O  0.45050357  0.97629611  0.18122038    -0.80700
O357        O  0.05693233  0.55917026  0.04748707    -0.79400
C358        C  0.03713555  0.97510581  0.16864803     0.83100
C359        C  0.46715518  0.92999910  0.03874562     0.82800
O360        O  0.05906896  0.51569995  0.05406111    -0.78400
C361        C  0.45451588  0.53110908  0.03682230     0.83600
O362        O  0.03741539  0.97195390  0.13175454    -0.78400
C363        C  0.42381432  0.95974731  0.16490573     0.83700
C364        C  0.02468553  0.57621984  0.16140738     0.84100
O365        O  0.01294235  0.54970873  0.17879186    -0.80900
O366        O  0.01320462  0.56514938  0.54412316    -0.78400
C367        C  0.42481244  0.97678971  0.53672628     0.82700
O368        O  0.47842492  0.53558453  0.67867099    -0.79500
O369        O  0.44734101  0.93005079  0.62776057    -0.81000
O370        O  0.04285676  0.98881420  0.55049733    -0.80800
O371        O  0.05599130  0.56226801  0.55027762    -0.79400
Zn372      Zn  0.48039569  0.53147714  0.57949788     1.55700
O373        O  0.99442427  0.94667507  0.54879252    -0.80800
Cd374      Cd  0.03965517  0.52193430  0.58414230     1.59700
Cd375      Cd  0.49357441  0.50561558  0.65980043     1.59600
O376        O  0.06908229  0.53315697  0.63189960    -0.80800
O377        O  0.49531090  0.50525075  0.60114161    -1.91300
Cd378      Cd  0.46844272  0.96089214  0.58135709     1.59900
O379        O  0.03804158  0.52316102  0.68344192    -0.80700
O380        O  0.43284288  0.95709894  0.54621433    -0.79400
C381        C  0.47126639  0.55315661  0.65986147     0.83100
C382        C  0.04185344  0.57527669  0.53614192     0.82800
O383        O  0.44049780  0.00551000  0.54802487    -0.78400
C384        C  0.02334205  0.96064716  0.53928707     0.83600
O385        O  0.47141957  0.55361829  0.62269966    -0.78400
C386        C  0.06500759  0.53275802  0.66865859     0.83700
C387        C  0.44754957  0.93299932  0.66475352     0.84100
O388        O  0.46371004  0.95993149  0.68139898    -0.80900
C389        C  0.19508389  0.85490777  0.39467751    -0.03100
C390        C  0.20438461  0.84000242  0.42227286    -0.05700
C391        C  0.23468212  0.85492101  0.43719180    -0.20800
C392        C  0.25698024  0.88602505  0.42725450     0.25000
C393        C  0.24809046  0.90225812  0.40201832    -0.18300
C394        C  0.21762307  0.88713526  0.38654515    -0.08300
C395        C  0.28892102  0.89988498  0.44422328    -0.18600
C396        C  0.31009550  0.93103642  0.44793504    -0.23400
C397        C  0.34055517  0.94315569  0.46862509     0.27000
C398        C  0.35525860  0.97317312  0.48616311    -0.20100
C399        C  0.38287570  0.98440951  0.50776861    -0.09800
C400        C  0.39644509  0.96583523  0.51226674    -0.10300
C401        C  0.38233543  0.93629256  0.49355969    -0.03300
C402        C  0.35495209  0.92520936  0.47174513    -0.18400
H403        H  0.18853640  0.81687171  0.43398062     0.10700
H404        H  0.24052623  0.84206179  0.45750556     0.10800
H405        H  0.26457225  0.92643300  0.39370927     0.10500
H406        H  0.21177222  0.90074003  0.36780754     0.11600
H407        H  0.29421254  0.88316730  0.45692949     0.11700
H408        H  0.30409163  0.94810796  0.43846158     0.13600
H409        H  0.34494517  0.98767661  0.48391960     0.10100
H410        H  0.39323185  0.00736846  0.52160434     0.12200
H411        H  0.39247420  0.92163422  0.49575718     0.08800
H412        H  0.34528617  0.90258629  0.45732394     0.11500
C413        C  0.03482630  0.94390248  0.51466035    -0.03100
C414        C  0.01506915  0.91193194  0.50433263    -0.05700
C415        C  0.02650427  0.89618105  0.48220227    -0.20800
C416        C  0.05793474  0.91190274  0.46997538     0.25000
C417        C  0.07732177  0.94425016  0.47902795    -0.18300
C418        C  0.06598035  0.95989970  0.50128332    -0.08300
C419        C  0.06979588  0.89389307  0.44835039    -0.18600
C420        C  0.10034616  0.90287892  0.44804975    -0.23400
C421        C  0.11366338  0.88492750  0.42998532     0.27000
C422        C  0.14360370  0.89276821  0.44175245    -0.20100
C423        C  0.15814245  0.87771315  0.42591474    -0.09800
C424        C  0.14408246  0.85478680  0.39575090    -0.10300
C425        C  0.11285073  0.84578395  0.38581558    -0.03300
C426        C  0.09812317  0.86088011  0.40207177    -0.18400
H427        H  0.99086295  0.89892496  0.51379854     0.10700
H428        H  0.01088382  0.87142085  0.47529960     0.10800
H429        H  0.10127180  0.95779906  0.46885812     0.10500
H430        H  0.08174804  0.98466261  0.50800714     0.11600
H431        H  0.05265516  0.87165587  0.43493329     0.11700
H432        H  0.11679612  0.92384929  0.46428225     0.13600
H433        H  0.15588030  0.91052712  0.46408689     0.10100
H434        H  0.18033766  0.88424373  0.43884884     0.12200
H435        H  0.09975383  0.82721618  0.36492526     0.08800
H436        H  0.07482888  0.85385179  0.39226555     0.11500
C437        C  0.14293869  0.80269685  0.39211755    -0.03100
C438        C  0.11813136  0.79098487  0.41974110    -0.05700
C439        C  0.10283175  0.75983801  0.43286674    -0.20800
C440        C  0.11237645  0.73917640  0.42089447     0.25000
C441        C  0.13761804  0.75022250  0.39495934    -0.18300
C442        C  0.15267424  0.78134805  0.38107996    -0.08300
C443        C  0.09511696  0.70642045  0.43635887    -0.18600
C444        C  0.10828296  0.68907983  0.44322300    -0.23400
C445        C  0.09113518  0.65832946  0.46420285     0.27000
C446        C  0.10779148  0.64932288  0.48837789    -0.20100
C447        C  0.09192352  0.62194152  0.51114911    -0.09800
C448        C  0.05903715  0.60301550  0.51013280    -0.10300
C449        C  0.04251653  0.61128231  0.48461923    -0.03300
C450        C  0.05836757  0.63844689  0.46167192    -0.18400
H451        H  0.11031149  0.80550007  0.43275624     0.10700
H452        H  0.08378709  0.75206511  0.45353698     0.10800
H453        H  0.14555580  0.73480546  0.38494888     0.10500
H454        H  0.17208851  0.78861833  0.36153580     0.11600
H455        H  0.07130609  0.69758503  0.44622613     0.11700
H456        H  0.13302151  0.69907947  0.43712736     0.13600
H457        H  0.13305034  0.66405993  0.49062793     0.10100
H458        H  0.10531340  0.61610924  0.53041101     0.12200
H459        H  0.01723369  0.59679578  0.48253476     0.08800
H460        H  0.04484271  0.64393301  0.44222144     0.11500
C461        C  0.14513271  0.80575073  0.30789971    -0.03100
C462        C  0.15928235  0.79808683  0.27724406    -0.05700
C463        C  0.14369951  0.76893604  0.25846219    -0.20800
C464        C  0.11295526  0.74604590  0.26824689     0.25000
C465        C  0.09783833  0.75303931  0.29757186    -0.18300
C466        C  0.11346592  0.78241022  0.31657239    -0.08300
C467        C  0.09750116  0.71637803  0.24495556    -0.18600
C468        C  0.07041420  0.68983747  0.25425399    -0.23400
C469        C  0.05730558  0.66090767  0.22968412     0.27000
C470        C  0.04014100  0.63109573  0.24725958    -0.20100
C471        C  0.02935159  0.60354348  0.22513655    -0.09800
C472        C  0.03516454  0.60527298  0.18480879    -0.10300
C473        C  0.05120052  0.63512531  0.16699744    -0.03300
C474        C  0.06205050  0.66260094  0.18910788    -0.18400
H475        H  0.18202340  0.81466361  0.26544397     0.10700
H476        H  0.15570083  0.76460001  0.23518079     0.10800
H477        H  0.07366007  0.73649394  0.30511765     0.10500
H478        H  0.10030423  0.78710946  0.33752641     0.11600
H479        H  0.11005334  0.71610650  0.21923166     0.11700
H480        H  0.05871860  0.68836801  0.28151448     0.13600
H481        H  0.03579143  0.62914262  0.27834864     0.10100
H482        H  0.51668042  0.58090422  0.23970269     0.12200
H483        H  0.05567829  0.63733607  0.13594445     0.08800
H484        H  0.07409066  0.68512283  0.17425935     0.11500
C485        C  0.39512121  0.94359202  0.18947647    -0.03100
C486        C  0.39714534  0.94353379  0.23037673    -0.05700
C487        C  0.36997692  0.92943720  0.25336794    -0.20800
C488        C  0.34026890  0.91561121  0.23606319     0.25000
C489        C  0.33820483  0.91492275  0.19516408    -0.18300
C490        C  0.36527655  0.92872822  0.17219905    -0.08300
C491        C  0.31175422  0.90173598  0.26106404    -0.18600
C492        C  0.28602905  0.90216975  0.25046485    -0.23400
C493        C  0.25645121  0.88821772  0.27340016     0.27000
C494        C  0.23520027  0.89755510  0.26442048    -0.20100
C495        C  0.20575750  0.88326476  0.28200836    -0.09800
C496        C  0.19605996  0.85893305  0.31024716    -0.10300
C497        C  0.21809260  0.84975406  0.31871340    -0.03300
C498        C  0.24770504  0.86425487  0.30104297    -0.18400
H499        H  0.41973346  0.95457096  0.24466852     0.10700
H500        H  0.37218902  0.92993749  0.28478029     0.10800
H501        H  0.31565963  0.90351400  0.18076636     0.10500
H502        H  0.36278062  0.92806655  0.14083121     0.11600
H503        H  0.31268318  0.89256764  0.28936293     0.11700
H504        H  0.28683341  0.91421138  0.22370130     0.13600
H505        H  0.24103265  0.91553945  0.24257225     0.10100
H506        H  0.19057240  0.89088032  0.27108940     0.12200
H507        H  0.21222004  0.83055823  0.33828712     0.08800
H508        H  0.26301724  0.85557951  0.30792796     0.11500
C509        C  0.14363223  0.85607603  0.31048623    -0.03100
C510        C  0.12106546  0.84214749  0.28010523    -0.05700
C511        C  0.10671599  0.85712992  0.26400093    -0.20800
C512        C  0.11453549  0.88725687  0.27606523     0.25000
C513        C  0.13737384  0.90232931  0.30519392    -0.18300
C514        C  0.15197322  0.88721826  0.32161130    -0.08300
C515        C  0.10011867  0.90245257  0.25427621    -0.18600
C516        C  0.09938621  0.92810238  0.26563844    -0.23400
C517        C  0.08452835  0.94132690  0.24069527     0.27000
C518        C  0.06897802  0.95518664  0.25782210    -0.20100
C519        C  0.05364694  0.96631112  0.23459208    -0.09800
C520        C  0.05386913  0.96409514  0.19367714    -0.10300
C521        C  0.07034976  0.95115467  0.17664995    -0.03300
C522        C  0.08557156  0.94006994  0.19978131    -0.18400
H523        H  0.11477771  0.82004592  0.26639844     0.10700
H524        H  0.08987246  0.84523337  0.24078069     0.10800
H525        H  0.14489123  0.92614695  0.31436310     0.10500
H526        H  0.17028387  0.90027054  0.34265389     0.11600
H527        H  0.08840301  0.89094113  0.22725346     0.11700
H528        H  0.10820435  0.93851737  0.29410324     0.13600
H529        H  0.06810263  0.95676681  0.28922650     0.10100
H530        H  0.04140617  0.97639024  0.24869548     0.12200
H531        H  0.07147618  0.94948846  0.14529639     0.08800
H532        H  0.09832665  0.93066356  0.18544497     0.11500
C533        C  0.46242310  0.57349373  0.68145355    -0.03100
C534        C  0.46387790  0.57544013  0.72238351    -0.05700
C535        C  0.45443681  0.59380568  0.74248771    -0.20800
C536        C  0.44295390  0.61026861  0.72221839     0.25000
C537        C  0.44268845  0.60934769  0.68123604    -0.18300
C538        C  0.45223969  0.59115962  0.66115614    -0.08300
C539        C  0.42995233  0.62684063  0.74441100    -0.18600
C540        C  0.40525768  0.62797256  0.73106346    -0.23400
C541        C  0.38739482  0.63841252  0.75476512     0.27000
C542        C  0.35511096  0.62250181  0.74975182    -0.20100
C543        C  0.33698629  0.63176732  0.76988838    -0.09800
C544        C  0.34973126  0.65638075  0.79844417    -0.10300
C545        C  0.38303287  0.67493319  0.79809511    -0.03300
C546        C  0.40152092  0.66531880  0.77854313    -0.18400
H547        H  0.47195002  0.56246468  0.73894565     0.10700
H548        H  0.45512320  0.59430698  0.77402603     0.10800
H549        H  0.43493528  0.62253280  0.66455804     0.10500
H550        H  0.45122716  0.59063557  0.62964115     0.11600
H551        H  0.43820175  0.63477230  0.77390803     0.11700
H552        H  0.39500149  0.61691922  0.70327460     0.13600
H553        H  0.34377793  0.60328150  0.72892130     0.10100
H554        H  0.31353395  0.62096576  0.75891753     0.12200
H555        H  0.39525726  0.69783008  0.81148716     0.08800
H556        H  0.42681148  0.67988008  0.78028384     0.11500
C557        C  0.42864882  0.90407223  0.68869262    -0.03100
C558        C  0.43363486  0.90406471  0.72900947    -0.05700
C559        C  0.41717361  0.87601902  0.75059880    -0.20800
C560        C  0.39538629  0.84738592  0.73244752     0.25000
C561        C  0.38921735  0.84784734  0.69251780    -0.18300
C562        C  0.40582493  0.87571578  0.67094080    -0.08300
C563        C  0.38019153  0.81746616  0.75557858    -0.18600
C564        C  0.36929651  0.78886727  0.73899330    -0.23400
C565        C  0.35753838  0.75874799  0.76072527     0.27000
C566        C  0.35730916  0.73380200  0.74138594    -0.20100
C567        C  0.34786022  0.70540566  0.76034144    -0.09800
C568        C  0.33932709  0.70077676  0.80043292    -0.10300
C569        C  0.33569166  0.72473218  0.81767203    -0.03300
C570        C  0.34567442  0.75364048  0.79886228    -0.18400
H571        H  0.45086948  0.92553193  0.74368396     0.10700
H572        H  0.42214150  0.87652713  0.78137647     0.10800
H573        H  0.37163292  0.82676857  0.67760994     0.10500
H574        H  0.40084832  0.87497422  0.64014028     0.11600
H575        H  0.38053989  0.81940482  0.78709702     0.11700
H576        H  0.37161159  0.78754819  0.70773240     0.13600
H577        H  0.36471991  0.73627772  0.71124390     0.10100
H578        H  0.34744035  0.68709326  0.74276133     0.12200
H579        H  0.32556727  0.72159620  0.84595275     0.08800
H580        H  0.34345097  0.77156729  0.81398430     0.11500
C581        C  0.09255328  0.54444261  0.69474241    -0.03100
C582        C  0.09202745  0.55504050  0.73262611    -0.05700
C583        C  0.11893278  0.56860764  0.75594891    -0.20800
C584        C  0.14664627  0.57108534  0.74236687     0.25000
C585        C  0.14691144  0.55956154  0.70496456    -0.18300
C586        C  0.12021798  0.54658487  0.68133744    -0.08300
C587        C  0.17577186  0.58885666  0.76580406    -0.18600
C588        C  0.19910540  0.58277537  0.76481555    -0.23400
C589        C  0.23021406  0.60407275  0.78293943     0.27000
C590        C  0.24796879  0.59179777  0.79702116    -0.20100
C591        C  0.27859942  0.61197653  0.81048199    -0.09800
C592        C  0.29350317  0.64538935  0.80845327    -0.10300
C593        C  0.27427245  0.65702214  0.79571150    -0.03300
C594        C  0.24350359  0.63686179  0.78319556    -0.18400
H595        H  0.07115734  0.55390382  0.74372813     0.10700
H596        H  0.11825780  0.57764564  0.78447828     0.10800
H597        H  0.16811474  0.56183119  0.69322575     0.10500
H598        H  0.12138671  0.53865524  0.65229517     0.11600
H599        H  0.17820287  0.60793457  0.78411822     0.11700
H600        H  0.19559069  0.56188915  0.74966631     0.13600
H601        H  0.23822473  0.56650278  0.79735085     0.10100
H602        H  0.29140097  0.60133770  0.82112633     0.12200
H603        H  0.28238659  0.68180930  0.79463973     0.08800
H604        H  0.23056794  0.64722838  0.77218463     0.11500
C605        C  0.43699478  0.54272182  0.01423894    -0.03100
C606        C  0.40525750  0.52220843  0.00450866    -0.05700
C607        C  0.38822470  0.53350549  0.98542842    -0.20800
C608        C  0.40241234  0.56552709  0.97526441     0.25000
C609        C  0.43422792  0.58606352  0.98488147    -0.18300
C610        C  0.45126754  0.57476580  0.00393907    -0.08300
C611        C  0.38295057  0.57689431  0.95666493    -0.18600
C612        C  0.39524339  0.60375511  0.93561305    -0.23400
C613        C  0.37710922  0.61718670  0.91842478     0.27000
C614        C  0.39312111  0.64371066  0.89463024    -0.20100
C615        C  0.37848622  0.65921828  0.88054987    -0.09800
C616        C  0.34621523  0.64798357  0.88619247    -0.10300
C617        C  0.33152298  0.62303195  0.91402312    -0.03300
C618        C  0.34609799  0.60727195  0.92854934    -0.18400
H619        H  0.39337232  0.49741299  0.01211565     0.10700
H620        H  0.36375421  0.51714300  0.97877117     0.10800
H621        H  0.44594055  0.61109038  0.97889346     0.10500
H622        H  0.47551031  0.59135793  0.01137564     0.11600
H623        H  0.35773783  0.56217832  0.95994650     0.11700
H624        H  0.42028057  0.61686703  0.93013136     0.13600
H625        H  0.41784520  0.65382256  0.88866974     0.10100
H626        H  0.39394000  0.68223427  0.86880713     0.12200
H627        H  0.31019887  0.61700914  0.92874329     0.08800
H628        H  0.33355993  0.58876851  0.94977264     0.11500
C629        C  0.45664761  0.90167442  0.01367009    -0.03100
C630        C  0.47857324  0.89554325  0.99648541    -0.05700
C631        C  0.46864302  0.86846825  0.97362250    -0.20800
C632        C  0.43661762  0.84654354  0.96819336     0.25000
C633        C  0.41465788  0.85292919  0.98467756    -0.18300
C634        C  0.42457115  0.88024954  0.00699077    -0.08300
C635        C  0.42658729  0.81729788  0.94510003    -0.18600
C636        C  0.40129448  0.78935188  0.95518643    -0.24800
C637        C  0.38930857  0.75910739  0.93344549     0.27000
C638        C  0.36886764  0.73089157  0.95271904    -0.20100
C639        C  0.35312701  0.70234870  0.93239246    -0.09800
C640        C  0.35527758  0.70101334  0.89123707    -0.10300
C641        C  0.37993879  0.72870506  0.87362943    -0.03300
C642        C  0.39589676  0.75754015  0.89397691    -0.18400
H643        H  0.50346044  0.91169091  0.00070045     0.10700
H644        H  0.48600778  0.86425519  0.96088625     0.10800
H645        H  0.38979444  0.83690707  0.98012491     0.10500
H646        H  0.40706158  0.88433956  0.01949913     0.11600
H647        H  0.44133253  0.81856464  0.92106064     0.11700
H648        H  0.38873675  0.78833513  0.98157280     0.13600
H649        H  0.36428068  0.73098637  0.98356349     0.10100
H650        H  0.33720631  0.68131118  0.94872061     0.12200
H651        H  0.38654721  0.72919935  0.84384652     0.08800
H652        H  0.41243883  0.77860128  0.87820603     0.11500
C653        C  0.10077775  0.55844254  0.01933369    -0.03100
C654        C  0.11512687  0.54087400  0.01230712    -0.05700
C655        C  0.14370579  0.55418689  0.99264889    -0.20800
C656        C  0.15900836  0.58547699  0.97918983     0.25000
C657        C  0.14473480  0.60326448  0.98597809    -0.18300
C658        C  0.11591941  0.58984262  0.00586577    -0.08300
C659        C  0.18981431  0.59789916  0.95904245    -0.18600
C660        C  0.20667447  0.62610129  0.94091416    -0.23400
C661        C  0.23737688  0.63635615  0.92148916     0.27000
C662        C  0.25978127  0.66853513  0.91761908    -0.20100
C663        C  0.28934550  0.67865497  0.90136108    -0.09800
C664        C  0.29821067  0.65702064  0.88828638    -0.10300
C665        C  0.27427677  0.62467540  0.89104872    -0.03300
C666        C  0.24475654  0.61459775  0.90681751    -0.18400
H667        H  0.10434442  0.51667369  0.02218337     0.10700
H668        H  0.15395812  0.53980408  0.98799314     0.10800
H669        H  0.15569139  0.62752006  0.97649959     0.10500
H670        H  0.10562344  0.60411917  0.01093414     0.11600
H671        H  0.19928006  0.58255097  0.95974048     0.11700
H672        H  0.19864630  0.64264256  0.94125102     0.13600
H673        H  0.25472853  0.68605569  0.92816332     0.10100
H674        H  0.30546234  0.70382063  0.90107503     0.12200
H675        H  0.27813151  0.60620794  0.88178687     0.08800
H676        H  0.22777850  0.58949225  0.90727567     0.11500
C677        C  0.83221343  0.16847080  0.87029452    -0.02400
C678        C  0.82919257  0.16804559  0.82053534    -0.02400
C679        C  0.66145672  0.33980922  0.32722777    -0.02400
C680        C  0.66081982  0.33807036  0.37678825    -0.02400
O681        O  0.99543088  0.44534652  0.05082740    -0.78400
C682        C  0.57061484  0.04377493  0.04132184     0.82700
O683        O  0.52281843  0.48746954  0.18430020    -0.79500
O684        O  0.52773239  0.07845855  0.12441754    -0.81000
O685        O  0.93997392  0.00249331  0.04855834    -0.80800
O686        O  0.94770869  0.43835378  0.04795155    -0.79400
Zn687      Zn  0.52117869  0.48405762  0.08491560     1.55700
O688        O  0.98343398  0.05013025  0.04486607    -0.80800
Cd689      Cd  0.95255237  0.47567112  0.08169496     1.59700
Cd690      Cd  0.99584480  0.00384646  0.15975662     1.59600
O691        O  0.92108159  0.45717229  0.12790636    -0.80800
O692        O  0.99667239  0.00237377  0.10117445    -1.91300
Cd693      Cd  0.51591204  0.04628991  0.07914046     1.59900
O694        O  0.95050359  0.47629610  0.18122029    -0.80700
O695        O  0.55693236  0.05917035  0.04748707    -0.79400
C696        C  0.53713559  0.47510579  0.16864799     0.83100
C697        C  0.96715517  0.42999905  0.03874560     0.82800
O698        O  0.55906895  0.01570003  0.05406116    -0.78400
C699        C  0.95451584  0.03110899  0.03682231     0.83600
O700        O  0.53741533  0.47195378  0.13175450    -0.78400
C701        C  0.92381433  0.45974731  0.16490560     0.83700
C702        C  0.52468556  0.07621986  0.16140745     0.84100
O703        O  0.51294240  0.04970875  0.17879198    -0.80900
O704        O  0.51320456  0.06514933  0.54412315    -0.78400
C705        C  0.92481244  0.47678965  0.53672630     0.82700
O706        O  0.97842485  0.03558448  0.67867102    -0.79500
O707        O  0.94734105  0.43005081  0.62776058    -0.81000
O708        O  0.54285695  0.48881422  0.55049745    -0.80800
O709        O  0.55599120  0.06226792  0.55027761    -0.79400
Zn710      Zn  0.98039566  0.03147711  0.57949787     1.55700
O711        O  0.49442440  0.44667517  0.54879254    -0.80800
Cd712      Cd  0.53965505  0.02193427  0.58414230     1.59700
Cd713      Cd  0.99357429  0.00561555  0.65980042     1.59600
O714        O  0.56908223  0.03315699  0.63189955    -0.80800
O715        O  0.99531086  0.00525076  0.60114164    -1.91300
Cd716      Cd  0.96844272  0.46089211  0.58135708     1.59900
O717        O  0.53804152  0.02316111  0.68344186    -0.80700
O718        O  0.93284287  0.45709887  0.54621432    -0.79400
C719        C  0.97126637  0.05315658  0.65986147     0.83100
C720        C  0.54185336  0.07527662  0.53614190     0.82800
O721        O  0.94049779  0.50550993  0.54802490    -0.78400
C722        C  0.52334218  0.46064720  0.53928715     0.83600
O723        O  0.97141954  0.05361823  0.62269967    -0.78400
C724        C  0.56500753  0.03275809  0.66865855     0.83700
C725        C  0.94754964  0.43299934  0.66475353     0.84100
O726        O  0.96371010  0.45993151  0.68139900    -0.80900
C727        C  0.69508397  0.35490787  0.39467750    -0.03100
C728        C  0.70438467  0.34000251  0.42227286    -0.05700
C729        C  0.73468219  0.35492109  0.43719180    -0.20800
C730        C  0.75698033  0.38602512  0.42725447     0.25000
C731        C  0.74809054  0.40225819  0.40201834    -0.18300
C732        C  0.71762317  0.38713537  0.38654516    -0.08300
C733        C  0.78892111  0.39988499  0.44422323    -0.18600
C734        C  0.81009557  0.43103643  0.44793506    -0.23400
C735        C  0.84055524  0.44315573  0.46862510     0.27000
C736        C  0.85525870  0.47317316  0.48616307    -0.20100
C737        C  0.88287577  0.48440952  0.50776862    -0.09800
C738        C  0.89644511  0.46583519  0.51226674    -0.10300
C739        C  0.88233546  0.43629255  0.49355970    -0.03300
C740        C  0.85495213  0.42520935  0.47174511    -0.18400
H741        H  0.68853648  0.31687184  0.43398059     0.10700
H742        H  0.74052628  0.34206186  0.45750553     0.10800
H743        H  0.76457239  0.42643313  0.39370927     0.10500
H744        H  0.71177234  0.40074017  0.36780752     0.11600
H745        H  0.79421260  0.38316729  0.45692941     0.11700
H746        H  0.80409169  0.44810798  0.43846166     0.13600
H747        H  0.84494530  0.48767671  0.48391950     0.10100
H748        H  0.89323191  0.50736844  0.52160439     0.12200
H749        H  0.89247420  0.42163417  0.49575722     0.08800
H750        H  0.84528624  0.40258636  0.45732394     0.11500
C751        C  0.53482636  0.44390249  0.51466039    -0.03100
C752        C  0.51506924  0.41193197  0.50433265    -0.05700
C753        C  0.52650436  0.39618105  0.48220235    -0.20800
C754        C  0.55793487  0.41190274  0.46997560     0.25000
C755        C  0.57732191  0.44425018  0.47902815    -0.18300
C756        C  0.56598042  0.45989972  0.50128340    -0.08300
C757        C  0.56979593  0.39389302  0.44835059    -0.18600
C758        C  0.60034620  0.40287888  0.44804978    -0.23400
C759        C  0.61366336  0.38492742  0.42998533     0.27000
C760        C  0.64360368  0.39276815  0.44175248    -0.20100
C761        C  0.65814248  0.37771314  0.42591475    -0.09800
C762        C  0.64408252  0.35478681  0.39575089    -0.10300
C763        C  0.61285079  0.34578391  0.38581557    -0.03300
C764        C  0.59812317  0.36088002  0.40207178    -0.18400
H765        H  0.49086298  0.39892494  0.51379857     0.10700
H766        H  0.51088398  0.37142093  0.47529964     0.10800
H767        H  0.60127190  0.45779906  0.46885844     0.10500
H768        H  0.58174809  0.48466261  0.50800721     0.11600
H769        H  0.55265516  0.37165577  0.43493356     0.11700
H770        H  0.61679619  0.42384928  0.46428215     0.13600
H771        H  0.65588026  0.41052705  0.46408693     0.10100
H772        H  0.68033769  0.38424375  0.43884887     0.12200
H773        H  0.59975392  0.32721614  0.36492527     0.08800
H774        H  0.57482886  0.35385166  0.39226556     0.11500
C775        C  0.64293875  0.30269688  0.39211756    -0.03100
C776        C  0.61813137  0.29098487  0.41974110    -0.05700
C777        C  0.60283177  0.25983799  0.43286673    -0.20800
C778        C  0.61237647  0.23917639  0.42089448     0.25000
C779        C  0.63761806  0.25022251  0.39495933    -0.18300
C780        C  0.65267428  0.28134807  0.38107999    -0.08300
C781        C  0.59511698  0.20642042  0.43635887    -0.18600
C782        C  0.60828294  0.18907977  0.44322298    -0.23400
C783        C  0.59113514  0.15832940  0.46420284     0.27000
C784        C  0.60779145  0.14932284  0.48837792    -0.20100
C785        C  0.59192346  0.12194143  0.51114910    -0.09800
C786        C  0.55903711  0.10301544  0.51013280    -0.10300
C787        C  0.54251648  0.11128227  0.48461926    -0.03300
C788        C  0.55836755  0.13844685  0.46167190    -0.18400
H789        H  0.61031151  0.30550005  0.43275624     0.10700
H790        H  0.58378710  0.25206507  0.45353699     0.10800
H791        H  0.64555582  0.23480547  0.38494883     0.10500
H792        H  0.67208857  0.28861835  0.36153582     0.11600
H793        H  0.57130609  0.19758500  0.44622614     0.11700
H794        H  0.63302149  0.19907939  0.43712734     0.13600
H795        H  0.63305025  0.16405986  0.49062798     0.10100
H796        H  0.60531336  0.11610914  0.53041098     0.12200
H797        H  0.51723368  0.09679581  0.48253482     0.08800
H798        H  0.54484269  0.14393296  0.44222139     0.11500
C799        C  0.64513274  0.30575072  0.30789973    -0.03100
C800        C  0.65928236  0.29808678  0.27724408    -0.05700
C801        C  0.64369947  0.26893599  0.25846221    -0.20800
C802        C  0.61295522  0.24604591  0.26824687     0.25000
C803        C  0.59783828  0.25303932  0.29757187    -0.18300
C804        C  0.61346595  0.28241023  0.31657242    -0.08300
C805        C  0.59750110  0.21637801  0.24495562    -0.18600
C806        C  0.57041423  0.18983745  0.25425407    -0.23400
C807        C  0.55730561  0.16090767  0.22968418     0.27000
C808        C  0.54014099  0.13109572  0.24725959    -0.20100
C809        C  0.52935160  0.10354352  0.22513653    -0.09800
C810        C  0.53516458  0.10527301  0.18480880    -0.10300
C811        C  0.55120056  0.13512535  0.16699745    -0.03300
C812        C  0.56205055  0.16260099  0.18910791    -0.18400
H813        H  0.68202342  0.31466353  0.26544402     0.10700
H814        H  0.65570078  0.26459991  0.23518083     0.10800
H815        H  0.57366009  0.23649400  0.30511766     0.10500
H816        H  0.60030426  0.28710945  0.33752646     0.11600
H817        H  0.61005329  0.21610650  0.21923165     0.11700
H818        H  0.55871864  0.18836797  0.28151466     0.13600
H819        H  0.53579137  0.12914259  0.27834863     0.10100
H820        H  0.01668035  0.08090420  0.23970269     0.12200
H821        H  0.55567834  0.13733611  0.13594445     0.08800
H822        H  0.57409068  0.18512285  0.17425944     0.11500
C823        C  0.89512124  0.44359204  0.18947640    -0.03100
C824        C  0.89714538  0.44353376  0.23037664    -0.05700
C825        C  0.86997696  0.42943718  0.25336790    -0.20800
C826        C  0.84026894  0.41561128  0.23606316     0.25000
C827        C  0.83820486  0.41492284  0.19516408    -0.18300
C828        C  0.86527656  0.42872823  0.17219897    -0.08300
C829        C  0.81175424  0.40173594  0.26106403    -0.18600
C830        C  0.78602906  0.40216970  0.25046484    -0.23400
C831        C  0.75645122  0.38821764  0.27340013     0.27000
C832        C  0.73520031  0.39755508  0.26442045    -0.20100
C833        C  0.70575757  0.38326479  0.28200840    -0.09800
C834        C  0.69606001  0.35893307  0.31024716    -0.10300
C835        C  0.71809263  0.34975405  0.31871344    -0.03300
C836        C  0.74770506  0.36425484  0.30104295    -0.18400
H837        H  0.91973349  0.45457085  0.24466842     0.10700
H838        H  0.87218907  0.42993739  0.28478023     0.10800
H839        H  0.81565965  0.40351411  0.18076636     0.10500
H840        H  0.86278062  0.42806648  0.14083123     0.11600
H841        H  0.81268319  0.39256754  0.28936286     0.11700
H842        H  0.78683342  0.41421138  0.22370137     0.13600
H843        H  0.74103268  0.41553940  0.24257222     0.10100
H844        H  0.69057250  0.39088041  0.27108946     0.12200
H845        H  0.71222011  0.33055830  0.33828715     0.08800
H846        H  0.76301725  0.35557944  0.30792793     0.11500
C847        C  0.64363231  0.35607607  0.31048623    -0.03100
C848        C  0.62106553  0.34214752  0.28010527    -0.05700
C849        C  0.60671613  0.35712998  0.26400086    -0.20800
C850        C  0.61453559  0.38725692  0.27606524     0.25000
C851        C  0.63737393  0.40232933  0.30519393    -0.18300
C852        C  0.65197333  0.38721832  0.32161125    -0.08300
C853        C  0.60011875  0.40245260  0.25427621    -0.18600
C854        C  0.59938623  0.42810238  0.26563849    -0.23400
C855        C  0.58452843  0.44132692  0.24069527     0.27000
C856        C  0.56897805  0.45518663  0.25782210    -0.20100
C857        C  0.55364701  0.46631113  0.23459205    -0.09800
C858        C  0.55386915  0.46409510  0.19367713    -0.10300
C859        C  0.57034977  0.45115458  0.17664994    -0.03300
C860        C  0.58557162  0.44006995  0.19978133    -0.18400
H861        H  0.61477772  0.32004591  0.26639853     0.10700
H862        H  0.58987269  0.34523348  0.24078056     0.10800
H863        H  0.64489132  0.42614703  0.31436314     0.10500
H864        H  0.67028406  0.40027063  0.34265381     0.11600
H865        H  0.58840315  0.39094119  0.22725345     0.11700
H866        H  0.60820428  0.43851732  0.29410331     0.13600
H867        H  0.56810256  0.45676673  0.28922649     0.10100
H868        H  0.54140626  0.47639031  0.24869545     0.12200
H869        H  0.57147613  0.44948830  0.14529640     0.08800
H870        H  0.59832675  0.43066354  0.18544496     0.11500
C871        C  0.96242313  0.07349375  0.68145354    -0.03100
C872        C  0.96387792  0.07544017  0.72238349    -0.05700
C873        C  0.95443689  0.09380575  0.74248769    -0.20800
C874        C  0.94295396  0.11026868  0.72221837     0.25000
C875        C  0.94268847  0.10934772  0.68123604    -0.18300
C876        C  0.95223967  0.09115963  0.66115613    -0.08300
C877        C  0.92995232  0.12684061  0.74441103    -0.18600
C878        C  0.90525763  0.12797248  0.73106349    -0.23400
C879        C  0.88739478  0.13841247  0.75476513     0.27000
C880        C  0.85511091  0.12250179  0.74975175    -0.20100
C881        C  0.83698628  0.13176732  0.76988835    -0.09800
C882        C  0.84973123  0.15638070  0.79844417    -0.10300
C883        C  0.88303285  0.17493312  0.79809513    -0.03300
C884        C  0.90152089  0.16531872  0.77854315    -0.18400
H885        H  0.97194999  0.06246465  0.73894568     0.10700
H886        H  0.95512327  0.09430707  0.77402600     0.10800
H887        H  0.93493524  0.12253283  0.66455801     0.10500
H888        H  0.95122708  0.09063553  0.62964115     0.11600
H889        H  0.93820170  0.13477225  0.77390806     0.11700
H890        H  0.89500146  0.11691916  0.70327463     0.13600
H891        H  0.84377790  0.10328156  0.72892123     0.10100
H892        H  0.81353390  0.12096577  0.75891745     0.12200
H893        H  0.89525724  0.19783000  0.81148716     0.08800
H894        H  0.92681146  0.17987999  0.78028387     0.11500
C895        C  0.92864894  0.40407225  0.68869263    -0.03100
C896        C  0.93363490  0.40406469  0.72900948    -0.05700
C897        C  0.91717363  0.37601901  0.75059880    -0.20800
C898        C  0.89538632  0.34738591  0.73244745     0.25000
C899        C  0.88921738  0.34784738  0.69251777    -0.18300
C900        C  0.90582500  0.37571582  0.67094079    -0.08300
C901        C  0.88019150  0.31746611  0.75557851    -0.18600
C902        C  0.86929649  0.28886721  0.73899320    -0.23400
C903        C  0.85753829  0.25874792  0.76072525     0.27000
C904        C  0.85730904  0.23380191  0.74138591    -0.20100
C905        C  0.84786016  0.20540561  0.76034146    -0.09800
C906        C  0.83932710  0.20077674  0.80043294    -0.10300
C907        C  0.83569162  0.22473215  0.81767205    -0.03300
C908        C  0.84567431  0.25364041  0.79886224    -0.18400
H909        H  0.95086951  0.42553196  0.74368405     0.10700
H910        H  0.92214146  0.37652706  0.78137646     0.10800
H911        H  0.87163294  0.32676862  0.67760988     0.10500
H912        H  0.90084837  0.37497432  0.64014029     0.11600
H913        H  0.88053978  0.31940475  0.78709687     0.11700
H914        H  0.87161160  0.28754812  0.70773236     0.13600
H915        H  0.86471972  0.23627758  0.71124389     0.10100
H916        H  0.84744029  0.18709319  0.74276131     0.12200
H917        H  0.82556725  0.22159618  0.84595275     0.08800
H918        H  0.84345082  0.27156721  0.81398427     0.11500
C919        C  0.59255324  0.04444266  0.69474238    -0.03100
C920        C  0.59202739  0.05504047  0.73262612    -0.05700
C921        C  0.61893277  0.06860762  0.75594890    -0.20800
C922        C  0.64664625  0.07108538  0.74236681     0.25000
C923        C  0.64691137  0.05956148  0.70496455    -0.18300
C924        C  0.62021791  0.04658484  0.68133742    -0.08300
C925        C  0.67577186  0.08885670  0.76580399    -0.18600
C926        C  0.69910538  0.08277540  0.76481557    -0.23400
C927        C  0.73021404  0.10407274  0.78293945     0.27000
C928        C  0.74796878  0.09179780  0.79702118    -0.20100
C929        C  0.77859942  0.11197654  0.81048199    -0.09800
C930        C  0.79350316  0.14538936  0.80845325    -0.10300
C931        C  0.77427246  0.15702216  0.79571148    -0.03300
C932        C  0.74350359  0.13686180  0.78319556    -0.18400
H933        H  0.57115732  0.05390374  0.74372816     0.10700
H934        H  0.61825779  0.07764559  0.78447826     0.10800
H935        H  0.66811464  0.06183104  0.69322574     0.10500
H936        H  0.62138659  0.03865514  0.65229520     0.11600
H937        H  0.67820290  0.10793465  0.78411822     0.11700
H938        H  0.69559066  0.06188912  0.74966629     0.13600
H939        H  0.73822474  0.06650279  0.79735088     0.10100
H940        H  0.79140096  0.10133774  0.82112635     0.12200
H941        H  0.78238660  0.18180931  0.79463970     0.08800
H942        H  0.73056794  0.14722837  0.77218461     0.11500
C943        C  0.93699473  0.04272177  0.01423899    -0.03100
C944        C  0.90525738  0.02220843  0.00450886    -0.05700
C945        C  0.88822464  0.03350553  0.98542857    -0.20800
C946        C  0.90241232  0.06552707  0.97526441     0.25000
C947        C  0.93422794  0.08606350  0.98488143    -0.18300
C948        C  0.95126752  0.07476573  0.00393905    -0.08300
C949        C  0.88295055  0.07689428  0.95666490    -0.18600
C950        C  0.89524336  0.10375505  0.93561301    -0.23400
C951        C  0.87710920  0.11718667  0.91842476     0.27000
C952        C  0.89312106  0.14371060  0.89463020    -0.20100
C953        C  0.87848618  0.15921823  0.88054984    -0.09800
C954        C  0.84621519  0.14798354  0.88619247    -0.10300
C955        C  0.83152296  0.12303197  0.91402317    -0.03300
C956        C  0.84609798  0.10727196  0.92854941    -0.18400
H957        H  0.89337214  0.99741303  0.01211597     0.10700
H958        H  0.86375409  0.01714303  0.97877132     0.10800
H959        H  0.94594058  0.11109030  0.97889339     0.10500
H960        H  0.97551033  0.09135785  0.01137557     0.11600
H961        H  0.85773780  0.06217828  0.95994649     0.11700
H962        H  0.92028055  0.11686696  0.93013132     0.13600
H963        H  0.91784519  0.15382251  0.88866969     0.10100
H964        H  0.89393996  0.18223423  0.86880712     0.12200
H965        H  0.81019885  0.11700916  0.92874328     0.08800
H966        H  0.83355996  0.08876857  0.94977269     0.11500
C967        C  0.95664763  0.40167441  0.01367009    -0.03100
C968        C  0.97857326  0.39554328  0.99648537    -0.05700
C969        C  0.96864304  0.36846827  0.97362247    -0.20800
C970        C  0.93661762  0.34654354  0.96819336     0.25000
C971        C  0.91465789  0.35292919  0.98467755    -0.18300
C972        C  0.92457117  0.38024953  0.00699080    -0.08300
C973        C  0.92658723  0.31729786  0.94510000    -0.18600
C974        C  0.90129444  0.28935183  0.95518646    -0.24800
C975        C  0.88930856  0.25910734  0.93344549     0.27000
C976        C  0.86886766  0.23089152  0.95271905    -0.20100
C977        C  0.85312695  0.20234864  0.93239247    -0.09800
C978        C  0.85527752  0.20101331  0.89123705    -0.10300
C979        C  0.87993874  0.22870499  0.87362943    -0.03300
C980        C  0.89589675  0.25754009  0.89397691    -0.18400
H981        H  0.00346049  0.41169099  0.00070041     0.10700
H982        H  0.98600780  0.36425524  0.96088622     0.10800
H983        H  0.88979448  0.33690711  0.98012488     0.10500
H984        H  0.90706160  0.38433953  0.01949919     0.11600
H985        H  0.94133239  0.31856461  0.92106058     0.11700
H986        H  0.88873674  0.28833505  0.98157285     0.13600
H987        H  0.86428076  0.23098632  0.98356354     0.10100
H988        H  0.83720631  0.18131117  0.94872058     0.12200
H989        H  0.88654718  0.22919924  0.84384652     0.08800
H990        H  0.91243883  0.27860120  0.87820603     0.11500
C991        C  0.60077776  0.05844264  0.01933370    -0.03100
C992        C  0.61512691  0.04087409  0.01230721    -0.05700
C993        C  0.64370581  0.05418701  0.99264896    -0.20800
C994        C  0.65900840  0.08547707  0.97918987     0.25000
C995        C  0.64473485  0.10326459  0.98597814    -0.18300
C996        C  0.61591945  0.08984272  0.00586581    -0.08300
C997        C  0.68981434  0.09789924  0.95904249    -0.18600
C998        C  0.70667447  0.12610136  0.94091415    -0.23400
C999        C  0.73737688  0.13635623  0.92148918     0.27000
C1000       C  0.75978129  0.16853519  0.91761910    -0.20100
C1001       C  0.78934549  0.17865499  0.90136108    -0.09800
C1002       C  0.79821060  0.15702059  0.88828635    -0.10300
C1003       C  0.77427666  0.12467538  0.89104870    -0.03300
C1004       C  0.74475644  0.11459777  0.90681749    -0.18400
H1005       H  0.60434448  0.01667384  0.02218348     0.10700
H1006       H  0.65395813  0.03980413  0.98799318     0.10800
H1007       H  0.65569145  0.12752016  0.97649966     0.10500
H1008       H  0.60562351  0.10411930  0.01093422     0.11600
H1009       H  0.69928012  0.08255105  0.95974059     0.11700
H1010       H  0.69864630  0.14264261  0.94125093     0.13600
H1011       H  0.75472860  0.18605583  0.92816337     0.10100
H1012       H  0.80546236  0.20382062  0.90107504     0.12200
H1013       H  0.77813133  0.10620783  0.88178688     0.08800
H1014       H  0.72777838  0.08949234  0.90727565     0.11500
C1015       C  0.83221349  0.66847084  0.87029453    -0.02400
C1016       C  0.82919258  0.66804561  0.82053534    -0.02400
C1017       C  0.66145666  0.83980921  0.32722778    -0.02400
C1018       C  0.66081975  0.83807032  0.37678826    -0.02400
O1019       O  0.99543088  0.94534656  0.05082745    -0.78400
C1020       C  0.57061486  0.54377486  0.04132185     0.82700
O1021       O  0.52281825  0.98746940  0.18430024    -0.79500
O1022       O  0.52773240  0.57845859  0.12441745    -0.81000
O1023       O  0.93997392  0.50249332  0.04855826    -0.80800
O1024       O  0.94770870  0.93835383  0.04795161    -0.79400
Zn1025     Zn  0.52117870  0.98405770  0.08491574     1.55700
O1026       O  0.98343397  0.55013026  0.04486611    -0.80800
Cd1027     Cd  0.95255240  0.97567119  0.08169515     1.59700
Cd1028     Cd  0.99584481  0.50384646  0.15975652     1.59600
O1029       O  0.92108156  0.95717230  0.12790648    -0.80800
O1030       O  0.99667233  0.50237366  0.10117431    -1.91300
Cd1031     Cd  0.51591200  0.54628984  0.07914044     1.59900
O1032       O  0.95050357  0.97629611  0.18122038    -0.80700
O1033       O  0.55693235  0.55917026  0.04748706    -0.79400
C1034       C  0.53713555  0.97510581  0.16864803     0.83100
C1035       C  0.96715517  0.92999910  0.03874562     0.82800
O1036       O  0.55906897  0.51569995  0.05406111    -0.78400
C1037       C  0.95451584  0.53110901  0.03682230     0.83600
O1038       O  0.53741539  0.97195390  0.13175454    -0.78400
C1039       C  0.92381432  0.95974731  0.16490573     0.83700
C1040       C  0.52468555  0.57621988  0.16140737     0.84100
O1041       O  0.51294238  0.54970877  0.17879186    -0.80900
O1042       O  0.51320462  0.56514938  0.54412317    -0.78400
C1043       C  0.92481245  0.97678970  0.53672629     0.82700
O1044       O  0.97842492  0.53558454  0.67867092    -0.79500
O1045       O  0.94734100  0.93005079  0.62776057    -0.81000
O1046       O  0.54285675  0.98881420  0.55049733    -0.80800
O1047       O  0.55599130  0.56226801  0.55027762    -0.79400
Zn1048     Zn  0.98039569  0.53147714  0.57949786     1.55700
O1049       O  0.49442427  0.94667507  0.54879252    -0.80800
Cd1050     Cd  0.53965517  0.52193430  0.58414230     1.59700
Cd1051     Cd  0.99357440  0.50561558  0.65980043     1.59600
O1052       O  0.56908229  0.53315697  0.63189960    -0.80800
O1053       O  0.99531090  0.50525075  0.60114162    -1.91300
Cd1054     Cd  0.96844272  0.96089214  0.58135709     1.59900
O1055       O  0.53804158  0.52316102  0.68344192    -0.80700
O1056       O  0.93284289  0.95709894  0.54621433    -0.79400
C1057       C  0.97126638  0.55315661  0.65986140     0.83100
C1058       C  0.54185345  0.57527669  0.53614192     0.82800
O1059       O  0.94049780  0.00551000  0.54802487    -0.78400
C1060       C  0.52334205  0.96064716  0.53928707     0.83600
O1061       O  0.97141956  0.55361830  0.62269960    -0.78400
C1062       C  0.56500759  0.53275802  0.66865859     0.83700
C1063       C  0.94754956  0.93299932  0.66475352     0.84100
O1064       O  0.96371003  0.95993149  0.68139898    -0.80900
C1065       C  0.69508389  0.85490777  0.39467751    -0.03100
C1066       C  0.70438461  0.84000242  0.42227286    -0.05700
C1067       C  0.73468212  0.85492101  0.43719180    -0.20800
C1068       C  0.75698024  0.88602505  0.42725450     0.25000
C1069       C  0.74809046  0.90225812  0.40201832    -0.18300
C1070       C  0.71762307  0.88713526  0.38654515    -0.08300
C1071       C  0.78892102  0.89988498  0.44422328    -0.18600
C1072       C  0.81009551  0.93103643  0.44793505    -0.23400
C1073       C  0.84055520  0.94315568  0.46862509     0.27000
C1074       C  0.85525864  0.97317315  0.48616308    -0.20100
C1075       C  0.88287574  0.98440950  0.50776861    -0.09800
C1076       C  0.89644510  0.96583522  0.51226675    -0.10300
C1077       C  0.88233544  0.93629255  0.49355970    -0.03300
C1078       C  0.85495209  0.92520935  0.47174513    -0.18400
H1079       H  0.68853640  0.81687171  0.43398062     0.10700
H1080       H  0.74052623  0.84206179  0.45750556     0.10800
H1081       H  0.76457224  0.92643300  0.39370928     0.10500
H1082       H  0.71177222  0.90074003  0.36780755     0.11600
H1083       H  0.79421253  0.88316730  0.45692949     0.11700
H1084       H  0.80409165  0.94810797  0.43846160     0.13600
H1085       H  0.84494526  0.98767663  0.48391954     0.10100
H1086       H  0.89323188  0.00736846  0.52160436     0.12200
H1087       H  0.89247420  0.92163421  0.49575719     0.08800
H1088       H  0.84528617  0.90258628  0.45732395     0.11500
C1089       C  0.53482630  0.94390248  0.51466035    -0.03100
C1090       C  0.51506915  0.91193194  0.50433263    -0.05700
C1091       C  0.52650427  0.89618105  0.48220227    -0.20800
C1092       C  0.55793474  0.91190274  0.46997538     0.25000
C1093       C  0.57732177  0.94425016  0.47902795    -0.18300
C1094       C  0.56598035  0.95989970  0.50128332    -0.08300
C1095       C  0.56979588  0.89389307  0.44835039    -0.18600
C1096       C  0.60034616  0.90287892  0.44804975    -0.23400
C1097       C  0.61366338  0.88492750  0.42998532     0.27000
C1098       C  0.64360370  0.89276821  0.44175245    -0.20100
C1099       C  0.65814245  0.87771315  0.42591474    -0.09800
C1100       C  0.64408245  0.85478680  0.39575090    -0.10300
C1101       C  0.61285073  0.84578395  0.38581558    -0.03300
C1102       C  0.59812316  0.86088011  0.40207177    -0.18400
H1103       H  0.49086295  0.89892496  0.51379854     0.10700
H1104       H  0.51088382  0.87142085  0.47529960     0.10800
H1105       H  0.60127180  0.95779906  0.46885812     0.10500
H1106       H  0.58174803  0.98466261  0.50800714     0.11600
H1107       H  0.55265516  0.87165587  0.43493329     0.11700
H1108       H  0.61679612  0.92384929  0.46428225     0.13600
H1109       H  0.65588030  0.91052712  0.46408689     0.10100
H1110       H  0.68033766  0.88424373  0.43884884     0.12200
H1111       H  0.59975383  0.82721618  0.36492526     0.08800
H1112       H  0.57482888  0.85385179  0.39226555     0.11500
C1113       C  0.64293869  0.80269685  0.39211755    -0.03100
C1114       C  0.61813136  0.79098487  0.41974110    -0.05700
C1115       C  0.60283174  0.75983801  0.43286674    -0.20800
C1116       C  0.61237645  0.73917640  0.42089447     0.25000
C1117       C  0.63761803  0.75022250  0.39495934    -0.18300
C1118       C  0.65267424  0.78134805  0.38107997    -0.08300
C1119       C  0.59511696  0.70642045  0.43635887    -0.18600
C1120       C  0.60828295  0.68907983  0.44322300    -0.23400
C1121       C  0.59113518  0.65832946  0.46420285     0.27000
C1122       C  0.60779148  0.64932289  0.48837788    -0.20100
C1123       C  0.59192353  0.62194151  0.51114910    -0.09800
C1124       C  0.55903715  0.60301550  0.51013280    -0.10300
C1125       C  0.54251654  0.61128231  0.48461924    -0.03300
C1126       C  0.55836757  0.63844689  0.46167192    -0.18400
H1127       H  0.61031149  0.80550007  0.43275624     0.10700
H1128       H  0.58378709  0.75206511  0.45353698     0.10800
H1129       H  0.64555579  0.73480546  0.38494888     0.10500
H1130       H  0.67208851  0.78861833  0.36153580     0.11600
H1131       H  0.57130609  0.69758503  0.44622613     0.11700
H1132       H  0.63302151  0.69907947  0.43712736     0.13600
H1133       H  0.63305035  0.66405993  0.49062792     0.10100
H1134       H  0.60531338  0.61610923  0.53041096     0.12200
H1135       H  0.51723369  0.59679578  0.48253476     0.08800
H1136       H  0.54484270  0.64393301  0.44222144     0.11500
C1137       C  0.64513271  0.80575073  0.30789971    -0.03100
C1138       C  0.65928234  0.79808683  0.27724406    -0.05700
C1139       C  0.64369951  0.76893604  0.25846219    -0.20800
C1140       C  0.61295526  0.74604590  0.26824689     0.25000
C1141       C  0.59783832  0.75303931  0.29757186    -0.18300
C1142       C  0.61346592  0.78241022  0.31657239    -0.08300
C1143       C  0.59750116  0.71637803  0.24495556    -0.18600
C1144       C  0.57041420  0.68983747  0.25425399    -0.23400
C1145       C  0.55730558  0.66090767  0.22968413     0.27000
C1146       C  0.54014100  0.63109573  0.24725958    -0.20100
C1147       C  0.52935159  0.60354349  0.22513654    -0.09800
C1148       C  0.53516454  0.60527300  0.18480878    -0.10300
C1149       C  0.55120053  0.63512533  0.16699743    -0.03300
C1150       C  0.56205050  0.66260095  0.18910788    -0.18400
H1151       H  0.68202340  0.81466361  0.26544397     0.10700
H1152       H  0.65570082  0.76460001  0.23518079     0.10800
H1153       H  0.57366007  0.73649394  0.30511765     0.10500
H1154       H  0.60030422  0.78710946  0.33752641     0.11600
H1155       H  0.61005334  0.71610651  0.21923166     0.11700
H1156       H  0.55871860  0.68836801  0.28151448     0.13600
H1157       H  0.53579143  0.62914261  0.27834864     0.10100
H1158       H  0.01668042  0.58090421  0.23970270     0.12200
H1159       H  0.55567829  0.63733609  0.13594444     0.08800
H1160       H  0.57409067  0.68512284  0.17425936     0.11500
C1161       C  0.89512121  0.94359202  0.18947647    -0.03100
C1162       C  0.89714534  0.94353379  0.23037673    -0.05700
C1163       C  0.86997692  0.92943720  0.25336794    -0.20800
C1164       C  0.84026890  0.91561121  0.23606319     0.25000
C1165       C  0.83820483  0.91492275  0.19516408    -0.18300
C1166       C  0.86527655  0.92872822  0.17219905    -0.08300
C1167       C  0.81175421  0.90173598  0.26106404    -0.18600
C1168       C  0.78602905  0.90216975  0.25046485    -0.23400
C1169       C  0.75645120  0.88821771  0.27340016     0.27000
C1170       C  0.73520027  0.89755510  0.26442053    -0.20100
C1171       C  0.70575752  0.88326481  0.28200847    -0.09800
C1172       C  0.69605996  0.85893304  0.31024721    -0.10300
C1173       C  0.71809259  0.84975405  0.31871342    -0.03300
C1174       C  0.74770504  0.86425487  0.30104298    -0.18400
H1175       H  0.91973346  0.95457096  0.24466852     0.10700
H1176       H  0.87218902  0.92993749  0.28478029     0.10800
H1177       H  0.81565963  0.90351400  0.18076636     0.10500
H1178       H  0.86278061  0.92806655  0.14083121     0.11600
H1179       H  0.81268318  0.89256764  0.28936293     0.11700
H1180       H  0.78683340  0.91421139  0.22370130     0.13600
H1181       H  0.74103261  0.91553943  0.24257227     0.10100
H1182       H  0.69057246  0.89088040  0.27108956     0.12200
H1183       H  0.71222004  0.83055819  0.33828711     0.08800
H1184       H  0.76301724  0.85557951  0.30792795     0.11500
C1185       C  0.64363222  0.85607603  0.31048624    -0.03100
C1186       C  0.62106546  0.84214749  0.28010523    -0.05700
C1187       C  0.60671600  0.85712993  0.26400092    -0.20800
C1188       C  0.61453549  0.88725687  0.27606523     0.25000
C1189       C  0.63737384  0.90232931  0.30519393    -0.18300
C1190       C  0.65197321  0.88721826  0.32161130    -0.08300
C1191       C  0.60011867  0.90245258  0.25427621    -0.18600
C1192       C  0.59938620  0.92810238  0.26563844    -0.23400
C1193       C  0.58452835  0.94132690  0.24069527     0.27000
C1194       C  0.56897802  0.95518664  0.25782210    -0.20100
C1195       C  0.55364694  0.96631112  0.23459208    -0.09800
C1196       C  0.55386913  0.96409514  0.19367714    -0.10300
C1197       C  0.57034976  0.95115467  0.17664995    -0.03300
C1198       C  0.58557156  0.94006994  0.19978131    -0.18400
H1199       H  0.61477771  0.82004593  0.26639843     0.10700
H1200       H  0.58987247  0.84523336  0.24078065     0.10800
H1201       H  0.64489123  0.92614695  0.31436310     0.10500
H1202       H  0.67028387  0.90027054  0.34265389     0.11600
H1203       H  0.58840301  0.89094114  0.22725346     0.11700
H1204       H  0.60820435  0.93851738  0.29410324     0.13600
H1205       H  0.56810263  0.95676681  0.28922650     0.10100
H1206       H  0.54140617  0.97639024  0.24869548     0.12200
H1207       H  0.57147617  0.94948846  0.14529639     0.08800
H1208       H  0.59832665  0.93066356  0.18544497     0.11500
C1209       C  0.96242310  0.57349373  0.68145352    -0.03100
C1210       C  0.96387789  0.57544012  0.72238348    -0.05700
C1211       C  0.95443681  0.59380567  0.74248770    -0.20800
C1212       C  0.94295389  0.61026860  0.72221839     0.25000
C1213       C  0.94268845  0.60934769  0.68123604    -0.18300
C1214       C  0.95223969  0.59115962  0.66115613    -0.08300
C1215       C  0.92995233  0.62684063  0.74441100    -0.18600
C1216       C  0.90525768  0.62797256  0.73106347    -0.23400
C1217       C  0.88739481  0.63841252  0.75476512     0.27000
C1218       C  0.85511096  0.62250182  0.74975181    -0.20100
C1219       C  0.83698629  0.63176732  0.76988838    -0.09800
C1220       C  0.84973126  0.65638075  0.79844417    -0.10300
C1221       C  0.88303286  0.67493319  0.79809511    -0.03300
C1222       C  0.90152092  0.66531879  0.77854315    -0.18400
H1223       H  0.97195002  0.56246467  0.73894563     0.10700
H1224       H  0.95512320  0.59430698  0.77402602     0.10800
H1225       H  0.93493528  0.62253280  0.66455805     0.10500
H1226       H  0.95122715  0.59063558  0.62964115     0.11600
H1227       H  0.93820175  0.63477230  0.77390803     0.11700
H1228       H  0.89500149  0.61691922  0.70327461     0.13600
H1229       H  0.84377793  0.60328150  0.72892129     0.10100
H1230       H  0.81353395  0.62096576  0.75891753     0.12200
H1231       H  0.89525726  0.69783007  0.81148717     0.08800
H1232       H  0.92681148  0.67988005  0.78028389     0.11500
C1233       C  0.92864882  0.90407223  0.68869262    -0.03100
C1234       C  0.93363486  0.90406471  0.72900947    -0.05700
C1235       C  0.91717361  0.87601902  0.75059880    -0.20800
C1236       C  0.89538629  0.84738592  0.73244752     0.25000
C1237       C  0.88921735  0.84784734  0.69251780    -0.18300
C1238       C  0.90582493  0.87571578  0.67094080    -0.08300
C1239       C  0.88019153  0.81746616  0.75557858    -0.18600
C1240       C  0.86929651  0.78886727  0.73899330    -0.23400
C1241       C  0.85753838  0.75874799  0.76072527     0.27000
C1242       C  0.85730915  0.73380200  0.74138594    -0.20100
C1243       C  0.84786022  0.70540566  0.76034144    -0.09800
C1244       C  0.83932709  0.70077676  0.80043292    -0.10300
C1245       C  0.83569166  0.72473218  0.81767203    -0.03300
C1246       C  0.84567442  0.75364048  0.79886228    -0.18400
H1247       H  0.95086948  0.92553193  0.74368396     0.10700
H1248       H  0.92214150  0.87652713  0.78137647     0.10800
H1249       H  0.87163292  0.82676857  0.67760994     0.10500
H1250       H  0.90084832  0.87497422  0.64014028     0.11600
H1251       H  0.88053989  0.81940482  0.78709702     0.11700
H1252       H  0.87161159  0.78754819  0.70773240     0.13600
H1253       H  0.86471991  0.73627772  0.71124390     0.10100
H1254       H  0.84744034  0.68709326  0.74276132     0.12200
H1255       H  0.82556727  0.72159620  0.84595275     0.08800
H1256       H  0.84345097  0.77156729  0.81398430     0.11500
C1257       C  0.59255327  0.54444261  0.69474241    -0.03100
C1258       C  0.59202744  0.55504050  0.73262611    -0.05700
C1259       C  0.61893278  0.56860764  0.75594891    -0.20800
C1260       C  0.64664626  0.57108534  0.74236687     0.25000
C1261       C  0.64691144  0.55956154  0.70496456    -0.18300
C1262       C  0.62021798  0.54658487  0.68133744    -0.08300
C1263       C  0.67577185  0.58885666  0.76580406    -0.18600
C1264       C  0.69910540  0.58277537  0.76481555    -0.23400
C1265       C  0.73021405  0.60407275  0.78293943     0.27000
C1266       C  0.74796879  0.59179777  0.79702116    -0.20100
C1267       C  0.77859942  0.61197653  0.81048199    -0.09800
C1268       C  0.79350317  0.64538935  0.80845327    -0.10300
C1269       C  0.77427245  0.65702213  0.79571150    -0.03300
C1270       C  0.74350359  0.63686179  0.78319556    -0.18400
H1271       H  0.57115734  0.55390382  0.74372813     0.10700
H1272       H  0.61825780  0.57764564  0.78447828     0.10800
H1273       H  0.66811474  0.56183119  0.69322575     0.10500
H1274       H  0.62138671  0.53865524  0.65229517     0.11600
H1275       H  0.67820286  0.60793457  0.78411822     0.11700
H1276       H  0.69559069  0.56188915  0.74966631     0.13600
H1277       H  0.73822473  0.56650278  0.79735085     0.10100
H1278       H  0.79140097  0.60133770  0.82112633     0.12200
H1279       H  0.78238659  0.68180930  0.79463973     0.08800
H1280       H  0.73056794  0.64722838  0.77218463     0.11500
C1281       C  0.93699476  0.54272179  0.01423895    -0.03100
C1282       C  0.90525748  0.52220842  0.00450866    -0.05700
C1283       C  0.88822469  0.53350549  0.98542842    -0.20800
C1284       C  0.90241234  0.56552709  0.97526441     0.25000
C1285       C  0.93422792  0.58606352  0.98488148    -0.18300
C1286       C  0.95126754  0.57476578  0.00393908    -0.08300
C1287       C  0.88295057  0.57689431  0.95666493    -0.18600
C1288       C  0.89524339  0.60375511  0.93561305    -0.23400
C1289       C  0.87710922  0.61718670  0.91842478     0.27000
C1290       C  0.89312111  0.64371066  0.89463024    -0.20100
C1291       C  0.87848622  0.65921828  0.88054987    -0.09800
C1292       C  0.84621523  0.64798357  0.88619247    -0.10300
C1293       C  0.83152298  0.62303195  0.91402312    -0.03300
C1294       C  0.84609799  0.60727195  0.92854934    -0.18400
H1295       H  0.89337230  0.49741298  0.01211564     0.10700
H1296       H  0.86375421  0.51714300  0.97877117     0.10800
H1297       H  0.94594055  0.61109038  0.97889347     0.10500
H1298       H  0.97551031  0.59135792  0.01137566     0.11600
H1299       H  0.85773783  0.56217832  0.95994650     0.11700
H1300       H  0.92028056  0.61686703  0.93013136     0.13600
H1301       H  0.91784520  0.65382256  0.88866974     0.10100
H1302       H  0.89394000  0.68223427  0.86880714     0.12200
H1303       H  0.81019887  0.61700914  0.92874329     0.08800
H1304       H  0.83355993  0.58876851  0.94977264     0.11500
C1305       C  0.95664761  0.90167442  0.01367009    -0.03100
C1306       C  0.97857324  0.89554325  0.99648541    -0.05700
C1307       C  0.96864302  0.86846825  0.97362250    -0.20800
C1308       C  0.93661762  0.84654354  0.96819336     0.25000
C1309       C  0.91465788  0.85292919  0.98467756    -0.18300
C1310       C  0.92457115  0.88024954  0.00699077    -0.08300
C1311       C  0.92658728  0.81729788  0.94510003    -0.18600
C1312       C  0.90129448  0.78935188  0.95518643    -0.24800
C1313       C  0.88930857  0.75910739  0.93344549     0.27000
C1314       C  0.86886766  0.73089157  0.95271905    -0.20100
C1315       C  0.85312701  0.70234870  0.93239246    -0.09800
C1316       C  0.85527758  0.70101334  0.89123706    -0.10300
C1317       C  0.87993878  0.72870506  0.87362943    -0.03300
C1318       C  0.89589676  0.75754015  0.89397691    -0.18400
H1319       H  0.00346044  0.91169091  0.00070045     0.10700
H1320       H  0.98600778  0.86425519  0.96088625     0.10800
H1321       H  0.88979443  0.83690707  0.98012491     0.10500
H1322       H  0.90706157  0.88433956  0.01949913     0.11600
H1323       H  0.94133253  0.81856464  0.92106064     0.11700
H1324       H  0.88873674  0.78833513  0.98157280     0.13600
H1325       H  0.86428073  0.73098636  0.98356352     0.10100
H1326       H  0.83720633  0.68131118  0.94872061     0.12200
H1327       H  0.88654721  0.72919935  0.84384651     0.08800
H1328       H  0.91243883  0.77860129  0.87820603     0.11500
C1329       C  0.60077777  0.55844255  0.01933373    -0.03100
C1330       C  0.61512689  0.54087399  0.01230713    -0.05700
C1331       C  0.64370581  0.55418689  0.99264888    -0.20800
C1332       C  0.65900837  0.58547699  0.97918983     0.25000
C1333       C  0.64473481  0.60326448  0.98597809    -0.18300
C1334       C  0.61591942  0.58984262  0.00586578    -0.08300
C1335       C  0.68981431  0.59789917  0.95904244    -0.18600
C1336       C  0.70667447  0.62610129  0.94091415    -0.23400
C1337       C  0.73737688  0.63635615  0.92148916     0.27000
C1338       C  0.75978127  0.66853513  0.91761908    -0.20100
C1339       C  0.78934550  0.67865497  0.90136108    -0.09800
C1340       C  0.79821066  0.65702064  0.88828638    -0.10300
C1341       C  0.77427676  0.62467540  0.89104872    -0.03300
C1342       C  0.74475654  0.61459775  0.90681751    -0.18400
H1343       H  0.60434445  0.51667368  0.02218335     0.10700
H1344       H  0.65395814  0.53980408  0.98799311     0.10800
H1345       H  0.65569138  0.62752005  0.97649957     0.10500
H1346       H  0.60562344  0.60411916  0.01093413     0.11600
H1347       H  0.69928006  0.58255098  0.95974047     0.11700
H1348       H  0.69864630  0.64264256  0.94125102     0.13600
H1349       H  0.75472852  0.68605569  0.92816332     0.10100
H1350       H  0.80546234  0.70382063  0.90107503     0.12200
H1351       H  0.77813151  0.60620794  0.88178687     0.08800
H1352       H  0.72777850  0.58949225  0.90727567     0.11500
loop_ 
_geom_bond_atom_site_label_1 
_geom_bond_atom_site_label_2 
_geom_bond_distance 
_geom_bond_site_symmetry_2 
_ccdc_geom_bond_type 
C1            C2   1.714       .  S
C1          C278   1.601       .  S
C1          C302   1.584       .  S
C1          C326   1.608       .  S
C2          C206   1.604       .  S
C2          C230   1.586       .  S
C2          C254   1.591       .  S
C3            C4   1.703       .  S
C3          C123   1.586       .  S
C3          C158   1.588       .  S
C3          C171   1.589       .  S
C4           C51   1.588       .  S
C4           C86   1.588       .  S
C4           C99   1.588       .  S
O5           C21   1.277       .  A
O5         Zn687   2.032       .  S
C6           O22   1.276       .  A
C6           O19   1.278       .  A
C6          C315   1.493       .  S
O7           C20   1.276       .  A
O7        Cd1028   2.081   1_455  S
O8           C26   1.277       .  A
O8          Cd17   2.077       .  S
O9           C23   1.277       .  A
O9         Cd351   2.083   1_545  S
O10          C21   1.277       .  A
O10         Cd13   2.083       .  S
Zn11         O24   2.030       .  S
Zn11        O681   2.032   1_455  S
Zn11        O360   2.019       .  S
Zn11       O1030   1.945   1_455  S
O12          C23   1.279       .  A
O12        Cd693   2.094       .  S
Cd13         O15   2.080       .  S
Cd13        O347   2.083       .  S
Cd13        O354   2.006       .  S
Cd14       O1021   2.081   1_545  S
Cd14        O356   2.079   1_545  S
Cd14        O703   2.072       .  S
Cd14         O16   2.013       .  S
O15          C25   1.277       .  A
O16       Zn1025   1.945   1_545  S
O16        Cd351   2.006   1_545  S
O16        Cd693   2.015       .  S
Cd17         O19   2.103       .  S
Cd17        O688   2.094   1_455  S
Cd17        O692   2.015   1_455  S
O18          C25   1.276       .  A
O18        Cd352   2.079       .  S
C20          O24   1.277       .  A
C20         C182   1.489       .  S
C21         C291   1.488       .  S
O22        Zn349   2.019   1_545  S
C23         C267   1.493       .  S
C25         C147   1.487       .  S
C26          O27   1.276       .  A
C26         C134   1.484       .  S
O27        Cd690   2.072   1_455  S
O28          C44   1.276       .  A
O28        Zn710   2.026   1_455  S
C29          O45   1.276       .  A
C29          O42   1.276       .  A
C29          C62   1.487       .  S
O30          C43   1.277       .  A
O30         Cd37   2.087       .  S
O31          C49   1.277       .  A
O31         Cd40   2.078       .  S
O32          C46   1.276       .  A
O32        Cd374   2.076       .  S
O33          C44   1.276       .  A
O33         Cd36   2.080       .  S
Zn34         O47   2.025       .  S
Zn34        O704   2.026       .  S
Zn34        O383   2.032       .  S
Zn34         O39   1.952       .  S
O35          C46   1.278   1_655  A
O35        Cd716   2.090       .  S
Cd36         O38   2.077       .  S
Cd36        O370   2.076   1_545  S
Cd36        O715   2.006   1_455  S
Cd37        O717   2.085       .  S
Cd37        O388   2.096   1_545  S
Cd37         O39   2.016       .  S
O38          C48   1.276       .  A
O39        Cd712   2.006       .  S
O39        Cd378   2.005   1_545  S
Cd40         O42   2.078       .  S
Cd40        O711   2.090       .  S
Cd40        O377   2.005       .  S
O41          C48   1.277       .  A
O41        Cd713   2.085   1_455  S
C43          O47   1.276       .  A
C43         C195   1.489       .  S
C44         C110   1.483       .  S
O45        Zn372   2.032       .  S
C46          C75   1.490       .  S
C48         C243   1.485       .  S
C49          O50   1.279       .  A
C49         C219   1.489       .  S
O50        Cd375   2.096       .  S
C51          C52   1.422       .  A
C51          C56   1.424       .  A
C52          C53   1.392       .  A
C52          H65   1.077       .  S
C53          C54   1.396       .  A
C53          H66   1.084       .  S
C54          C55   1.405       .  A
C54          C57   1.490       .  S
C55          C56   1.406       .  A
C55          H67   1.081       .  S
C56          H68   1.078       .  S
C57          C58   1.349       .  D
C57          H69   1.085       .  S
C58          C59   1.494       .  S
C58          H70   1.085       .  S
C59          C60   1.405       .  A
C59          C64   1.409       .  A
C60          C61   1.403       .  A
C60          H71   1.083       .  S
C61          C62   1.407       .  A
C61          H72   1.083       .  S
C62          C63   1.405       .  A
C63          C64   1.398       .  A
C63          H73   1.083       .  S
C64          H74   1.081       .  S
C75          C76   1.407       .  A
C75          C80   1.406       .  A
C76          C77   1.404       .  A
C76          H89   1.083   1_455  S
C77          C78   1.406       .  A
C77          H90   1.083       .  S
C78          C79   1.410       .  A
C78          C81   1.497       .  S
C79          C80   1.399       .  A
C79          H91   1.081       .  S
C80          H92   1.083       .  S
C81          C82   1.350       .  D
C81          H93   1.085       .  S
C82          C83   1.493       .  S
C82          H94   1.084       .  S
C83          C84   1.396       .  A
C83          C88   1.405       .  A
C84          C85   1.392       .  A
C84          H95   1.084       .  S
C85          C86   1.422       .  A
C85          H96   1.077       .  S
C86          C87   1.424       .  A
C87          C88   1.407       .  A
C87          H97   1.077       .  S
C88          H98   1.081       .  S
C99         C100   1.422       .  A
C99         C104   1.425       .  A
C100        C101   1.394       .  A
C100        H113   1.076       .  S
C101        C102   1.396       .  A
C101        H114   1.084       .  S
C102        C103   1.401       .  A
C102        C105   1.486       .  S
C103        C104   1.403       .  A
C103        H115   1.082       .  S
C104        H116   1.075       .  S
C105        C106   1.348       .  D
C105        H117   1.086       .  S
C106        C107   1.490       .  S
C106        H118   1.086       .  S
C107        C108   1.405       .  A
C107        C112   1.407       .  A
C108        C109   1.402       .  A
C108        H119   1.083       .  S
C109        C110   1.406       .  A
C109        H120   1.083       .  S
C110        C111   1.405       .  A
C111        C112   1.398       .  A
C111        H121   1.083       .  S
C112        H122   1.082       .  S
C123        C124   1.423       .  A
C123        C128   1.423       .  A
C124        C125   1.391       .  A
C124        H137   1.077       .  S
C125        C126   1.395       .  A
C125        H138   1.084       .  S
C126        C127   1.404       .  A
C126        C129   1.487       .  S
C127        C128   1.403       .  A
C127        H139   1.081       .  S
C128        H140   1.077       .  S
C129        C130   1.346       .  D
C129        H141   1.086       .  S
C130        C131   1.488       .  S
C130        H142   1.085       .  S
C131        C132   1.402       .  A
C131        C136   1.408       .  A
C132        C133   1.400       .  A
C132        H143   1.083       .  S
C133        C134   1.408       .  A
C133        H820   1.083       .  S
C134        C135   1.405       .  A
C135        C136   1.397       .  A
C135        H145   1.083       .  S
C136        H146   1.082       .  S
H144        C809   1.083       .  S
C147        C148   1.408       .  A
C147        C152   1.406       .  A
C148        C149   1.402       .  A
C148        H161   1.083       .  S
C149        C150   1.403       .  A
C149        H162   1.083       .  S
C150        C151   1.407       .  A
C150        C153   1.489       .  S
C151        C152   1.398       .  A
C151        H163   1.082       .  S
C152        H164   1.083       .  S
C153        C154   1.348       .  D
C153        H165   1.085       .  S
C154        C155   1.489       .  S
C154        H166   1.086       .  S
C155        C156   1.396       .  A
C155        C160   1.402       .  A
C156        C157   1.395       .  A
C156        H167   1.084       .  S
C157        C158   1.423       .  A
C157        H168   1.076       .  S
C158        C159   1.423       .  A
C159        C160   1.402       .  A
C159        H169   1.075       .  S
C160        H170   1.081       .  S
C171        C172   1.424       .  A
C171        C176   1.424       .  A
C172        C173   1.389       .  A
C172        H185   1.076       .  S
C173        C174   1.394       .  A
C173        H186   1.084       .  S
C174        C175   1.405       .  A
C174        C177   1.489       .  S
C175        C176   1.408       .  A
C175        H187   1.082       .  S
C176        H188   1.078       .  S
C177        C178   1.347       .  D
C177        H189   1.087       .  S
C178        C179   1.492       .  S
C178        H190   1.085       .  S
C179        C180   1.404       .  A
C179        C184   1.408       .  A
C180        C181   1.404       .  A
C180        H191   1.083       .  S
C181        C182   1.409       .  A
C181        H192   1.083       .  S
C182        C183   1.405       .  A
C183        C184   1.397       .  A
C183        H193   1.083       .  S
C184        H194   1.082       .  S
C195        C196   1.408       .  A
C195        C200   1.407       .  A
C196        C197   1.403       .  A
C196        H209   1.083       .  S
C197        C198   1.404       .  A
C197        H210   1.083       .  S
C198        C199   1.407       .  A
C198        C201   1.492       .  S
C199        C200   1.399       .  A
C199        H211   1.082       .  S
C200        H212   1.083       .  S
C201        C202   1.346       .  D
C201        H213   1.087       .  S
C202        C203   1.483       .  S
C202        H214   1.086       .  S
C203        C204   1.390       .  A
C203        C208   1.400       .  A
C204        C205   1.391       .  A
C204        H215   1.084       .  S
C205        C206   1.429       .  A
C205        H216   1.072       .  S
C206        C207   1.422       .  A
C207        C208   1.408       .  A
C207        H217   1.072       .  S
C208        H218   1.083       .  S
C219        C220   1.407       .  A
C219        C224   1.406       .  A
C220        C221   1.404       .  A
C220        H233   1.083       .  S
C221        C222   1.406       .  A
C221        H234   1.083       .  S
C222        C223   1.409       .  A
C222        C225   1.496       .  S
C223        C224   1.398       .  A
C223        H235   1.081       .  S
C224        H236   1.083       .  S
C225        C226   1.350       .  D
C225        H237   1.085       .  S
C226        C227   1.491       .  S
C226        H238   1.085       .  S
C227        C228   1.396       .  A
C227        C232   1.404       .  A
C228        C229   1.393       .  A
C228        H239   1.084       .  S
C229        C230   1.424       .  A
C229        H240   1.079       .  S
C230        C231   1.418       .  A
C231        C232   1.407       .  A
C231        H241   1.068       .  S
C232        H242   1.082       .  S
C243        C244   1.406       .  A
C243        C248   1.406       .  A
C244        C245   1.401       .  A
C244        H257   1.083       .  S
C245        C246   1.404       .  A
C245        H258   1.083       .  S
C246        C247   1.406       .  A
C246        C249   1.486       .  S
C247        C248   1.400       .  A
C247        H259   1.082       .  S
C248        H260   1.083       .  S
C249        C250   1.348       .  D
C249        H261   1.087       .  S
C250        C251   1.487       .  S
C250        H262   1.086       .  S
C251        C252   1.398       .  A
C251        C256   1.399       .  A
C252        C253   1.402       .  A
C252        H263   1.083       .  S
C253        C254   1.421       .  A
C253        H264   1.083       .  S
C254        C255   1.424       .  A
C255        C256   1.396       .  A
C255        H265   1.075       .  S
C256        H266   1.083       .  S
C267        C268   1.408       .  A
C267        C272   1.407       .  A
C268        C269   1.403   1_554  A
C268        H281   1.083   1_545  S
C269        C270   1.405       .  A
C269        H282   1.083       .  S
C270        C271   1.410       .  A
C270        C273   1.498       .  S
C271        C272   1.403   1_556  A
C271        H283   1.081       .  S
C272        H284   1.083       .  S
C273        C274   1.351       .  D
C273        H285   1.084       .  S
C274        C275   1.498       .  S
C274        H286   1.085       .  S
C275        C276   1.395       .  A
C275        C280   1.403       .  A
C276        C277   1.395       .  A
C276        H287   1.084       .  S
C277        C278   1.419       .  A
C277        H288   1.070       .  S
C278        C279   1.428       .  A
C279        C280   1.409       .  A
C279        H289   1.071       .  S
C280        H290   1.081       .  S
C291        C292   1.408   1_554  A
C291        C296   1.407       .  A
C292        C293   1.402       .  A
C292        H305   1.083   1_556  S
C293        C294   1.403       .  A
C293        H306   1.083       .  S
C294        C295   1.407       .  A
C294        C297   1.489       .  S
C295        C296   1.401   1_556  A
C295        H307   1.083       .  S
C296        H308   1.083       .  S
C297        C298   1.347       .  D
C297        H309   1.085       .  S
C298        C299   1.491       .  S
C298        H310   1.087       .  S
C299        C300   1.397       .  A
C299        C304   1.405       .  A
C300        C301   1.395       .  A
C300        H311   1.083       .  S
C301        C302   1.421       .  A
C301        H312   1.083       .  S
C302        C303   1.418       .  A
C303        C304   1.406       .  A
C303        H313   1.070       .  S
C304        H314   1.081       .  S
C315        C316   1.406       .  A
C315        C320   1.409       .  A
C316        C317   1.396   1_554  A
C316        H329   1.083       .  S
C317        C318   1.404       .  A
C317        H330   1.084       .  S
C318        C319   1.411       .  A
C318        C321   1.496       .  S
C319        C320   1.408   1_556  A
C319        H331   1.080       .  S
C320        H332   1.083       .  S
C321        C322   1.352       .  D
C321        H333   1.085       .  S
C322        C323   1.498       .  S
C322        H334   1.084       .  S
C323        C324   1.399       .  A
C323        C328   1.400       .  A
C324        C325   1.404       .  A
C324        H335   1.083       .  S
C325        C326   1.427       .  A
C325        H336   1.076       .  S
C326        C327   1.419       .  A
C327        C328   1.396       .  A
C327        H337   1.075       .  S
C328        H338   1.081       .  S
C339        C340   1.714       .  S
C339        C616   1.601       .  S
C339        C640   1.584       .  S
C339        C664   1.608       .  S
C340        C544   1.604       .  S
C340        C568   1.586       .  S
C340        C592   1.591       .  S
C341        C342   1.703       .  S
C341        C461   1.586       .  S
C341        C496   1.588       .  S
C341        C509   1.589       .  S
C342        C389   1.588       .  S
C342        C424   1.588       .  S
C342        C437   1.588       .  S
O343        C359   1.277       .  A
O343      Zn1025   2.032       .  S
C344        O360   1.276       .  A
C344        O357   1.278       .  A
C344        C653   1.493       .  S
O345        C358   1.276       .  A
O345       Cd690   2.081   1_465  S
O346        C364   1.277       .  A
O346       Cd355   2.077       .  S
O347        C361   1.277       .  A
O348        C359   1.277       .  A
O348       Cd351   2.083       .  S
Zn349      O1019   2.032   1_455  S
Zn349       O362   2.030       .  S
Zn349       O692   1.945   1_465  S
O350        C361   1.279       .  A
O350      Cd1031   2.094       .  S
Cd351       O353   2.080       .  S
Cd352       O683   2.081       .  S
Cd352      O1041   2.072       .  S
Cd352       O354   2.013       .  S
O353        C363   1.277       .  A
O354       Zn687   1.945       .  S
O354      Cd1031   2.015       .  S
Cd355      O1026   2.094   1_455  S
Cd355       O357   2.103       .  S
Cd355      O1030   2.015   1_455  S
O356        C363   1.276       .  A
C358        O362   1.277       .  A
C358        C520   1.489       .  S
C359        C629   1.488       .  S
C361        C605   1.493       .  S
C363        C485   1.487       .  S
C364        O365   1.276       .  A
C364        C472   1.484       .  S
O365      Cd1028   2.072   1_455  S
O366        C382   1.276       .  A
O366      Zn1048   2.026   1_455  S
C367        O383   1.276   1_565  A
C367        O380   1.276       .  A
C367        C400   1.487       .  S
O368        C381   1.277       .  A
O368       Cd375   2.087       .  S
O369        C387   1.277       .  A
O369       Cd378   2.078       .  S
O370        C384   1.276       .  A
O371        C382   1.276       .  A
O371       Cd374   2.080       .  S
Zn372      O1042   2.026       .  S
Zn372       O385   2.025       .  S
Zn372       O377   1.952       .  S
O373        C384   1.278   1_655  A
O373      Cd1054   2.090       .  S
Cd374       O376   2.077       .  S
Cd374      O1053   2.006   1_455  S
Cd375      O1055   2.085       .  S
Cd375       O377   2.016       .  S
O376        C386   1.276       .  A
O377      Cd1050   2.006       .  S
Cd378      O1049   2.090       .  S
Cd378       O380   2.078       .  S
O379        C386   1.277       .  A
O379      Cd1051   2.085   1_455  S
C381        O385   1.276       .  A
C381        C533   1.489       .  S
C382        C448   1.483       .  S
C384        C413   1.490       .  S
C386        C581   1.485       .  S
C387        O388   1.279       .  A
C387        C557   1.489       .  S
C389        C390   1.422       .  A
C389        C394   1.424       .  A
C390        C391   1.392       .  A
C390        H403   1.077       .  S
C391        C392   1.396       .  A
C391        H404   1.084       .  S
C392        C393   1.405       .  A
C392        C395   1.490       .  S
C393        C394   1.406       .  A
C393        H405   1.081       .  S
C394        H406   1.078       .  S
C395        C396   1.349       .  D
C395        H407   1.085       .  S
C396        C397   1.494       .  S
C396        H408   1.085       .  S
C397        C398   1.405       .  A
C397        C402   1.409       .  A
C398        C399   1.403       .  A
C398        H409   1.083       .  S
C399        C400   1.407       .  A
C399        H410   1.083   1_565  S
C400        C401   1.405       .  A
C401        C402   1.398       .  A
C401        H411   1.083       .  S
C402        H412   1.081       .  S
C413        C414   1.407       .  A
C413        C418   1.406       .  A
C414        C415   1.404       .  A
C414        H427   1.083   1_455  S
C415        C416   1.406       .  A
C415        H428   1.083       .  S
C416        C417   1.410       .  A
C416        C419   1.497       .  S
C417        C418   1.399       .  A
C417        H429   1.081       .  S
C418        H430   1.083       .  S
C419        C420   1.350       .  D
C419        H431   1.085       .  S
C420        C421   1.493       .  S
C420        H432   1.084       .  S
C421        C422   1.396       .  A
C421        C426   1.405       .  A
C422        C423   1.392       .  A
C422        H433   1.084       .  S
C423        C424   1.422       .  A
C423        H434   1.077       .  S
C424        C425   1.424       .  A
C425        C426   1.407       .  A
C425        H435   1.077       .  S
C426        H436   1.081       .  S
C437        C438   1.422       .  A
C437        C442   1.425       .  A
C438        C439   1.394       .  A
C438        H451   1.076       .  S
C439        C440   1.396       .  A
C439        H452   1.084       .  S
C440        C441   1.401       .  A
C440        C443   1.486       .  S
C441        C442   1.403       .  A
C441        H453   1.082       .  S
C442        H454   1.075       .  S
C443        C444   1.348       .  D
C443        H455   1.086       .  S
C444        C445   1.490       .  S
C444        H456   1.086       .  S
C445        C446   1.405       .  A
C445        C450   1.407       .  A
C446        C447   1.402       .  A
C446        H457   1.083       .  S
C447        C448   1.406       .  A
C447        H458   1.083       .  S
C448        C449   1.405       .  A
C449        C450   1.398       .  A
C449        H459   1.083       .  S
C450        H460   1.082       .  S
C461        C462   1.423       .  A
C461        C466   1.423       .  A
C462        C463   1.391       .  A
C462        H475   1.077       .  S
C463        C464   1.395       .  A
C463        H476   1.084       .  S
C464        C465   1.404       .  A
C464        C467   1.487       .  S
C465        C466   1.403       .  A
C465        H477   1.081       .  S
C466        H478   1.077       .  S
C467        C468   1.346       .  D
C467        H479   1.086       .  S
C468        C469   1.488       .  S
C468        H480   1.085       .  S
C469        C470   1.402       .  A
C469        C474   1.408       .  A
C470        C471   1.400       .  A
C470        H481   1.083       .  S
C471        C472   1.408       .  A
C471       H1158   1.083       .  S
C472        C473   1.405       .  A
C473        C474   1.397       .  A
C473        H483   1.083       .  S
C474        H484   1.082       .  S
H482       C1147   1.083       .  S
C485        C486   1.408       .  A
C485        C490   1.406       .  A
C486        C487   1.402       .  A
C486        H499   1.083       .  S
C487        C488   1.403       .  A
C487        H500   1.083       .  S
C488        C489   1.407       .  A
C488        C491   1.489       .  S
C489        C490   1.398       .  A
C489        H501   1.082       .  S
C490        H502   1.083       .  S
C491        C492   1.348       .  D
C491        H503   1.085       .  S
C492        C493   1.489       .  S
C492        H504   1.086       .  S
C493        C494   1.396       .  A
C493        C498   1.402       .  A
C494        C495   1.395       .  A
C494        H505   1.084       .  S
C495        C496   1.423       .  A
C495        H506   1.076       .  S
C496        C497   1.423       .  A
C497        C498   1.402       .  A
C497        H507   1.075       .  S
C498        H508   1.081       .  S
C509        C510   1.424       .  A
C509        C514   1.424       .  A
C510        C511   1.389       .  A
C510        H523   1.076       .  S
C511        C512   1.394       .  A
C511        H524   1.084       .  S
C512        C513   1.405       .  A
C512        C515   1.489       .  S
C513        C514   1.408       .  A
C513        H525   1.082       .  S
C514        H526   1.078       .  S
C515        C516   1.347       .  D
C515        H527   1.087       .  S
C516        C517   1.492       .  S
C516        H528   1.085       .  S
C517        C518   1.404       .  A
C517        C522   1.408       .  A
C518        C519   1.404       .  A
C518        H529   1.083       .  S
C519        C520   1.409       .  A
C519        H530   1.083       .  S
C520        C521   1.405       .  A
C521        C522   1.397       .  A
C521        H531   1.083       .  S
C522        H532   1.082       .  S
C533        C534   1.408       .  A
C533        C538   1.407       .  A
C534        C535   1.403       .  A
C534        H547   1.083       .  S
C535        C536   1.404       .  A
C535        H548   1.083       .  S
C536        C537   1.407       .  A
C536        C539   1.492       .  S
C537        C538   1.399       .  A
C537        H549   1.082       .  S
C538        H550   1.083       .  S
C539        C540   1.346       .  D
C539        H551   1.087       .  S
C540        C541   1.483       .  S
C540        H552   1.086       .  S
C541        C542   1.390       .  A
C541        C546   1.400       .  A
C542        C543   1.391       .  A
C542        H553   1.084       .  S
C543        C544   1.429       .  A
C543        H554   1.072       .  S
C544        C545   1.422       .  A
C545        C546   1.408       .  A
C545        H555   1.072       .  S
C546        H556   1.083       .  S
C557        C558   1.407       .  A
C557        C562   1.406       .  A
C558        C559   1.404       .  A
C558        H571   1.083       .  S
C559        C560   1.406       .  A
C559        H572   1.083       .  S
C560        C561   1.409       .  A
C560        C563   1.496       .  S
C561        C562   1.398       .  A
C561        H573   1.081       .  S
C562        H574   1.083       .  S
C563        C564   1.350       .  D
C563        H575   1.085       .  S
C564        C565   1.491       .  S
C564        H576   1.085       .  S
C565        C566   1.396       .  A
C565        C570   1.404       .  A
C566        C567   1.393       .  A
C566        H577   1.084       .  S
C567        C568   1.424       .  A
C567        H578   1.079       .  S
C568        C569   1.418       .  A
C569        C570   1.407       .  A
C569        H579   1.068       .  S
C570        H580   1.082       .  S
C581        C582   1.406       .  A
C581        C586   1.406       .  A
C582        C583   1.401       .  A
C582        H595   1.083       .  S
C583        C584   1.404       .  A
C583        H596   1.083       .  S
C584        C585   1.406       .  A
C584        C587   1.486       .  S
C585        C586   1.400       .  A
C585        H597   1.082       .  S
C586        H598   1.083       .  S
C587        C588   1.348       .  D
C587        H599   1.087       .  S
C588        C589   1.487       .  S
C588        H600   1.086       .  S
C589        C590   1.398       .  A
C589        C594   1.399       .  A
C590        C591   1.402       .  A
C590        H601   1.083       .  S
C591        C592   1.421       .  A
C591        H602   1.083       .  S
C592        C593   1.424       .  A
C593        C594   1.396       .  A
C593        H603   1.075       .  S
C594        H604   1.083       .  S
C605        C606   1.408       .  A
C605        C610   1.407       .  A
C606        C607   1.403   1_554  A
C606        H619   1.083       .  S
C607        C608   1.405       .  A
C607        H620   1.083       .  S
C608        C609   1.410       .  A
C608        C611   1.498       .  S
C609        C610   1.402   1_556  A
C609        H621   1.081       .  S
C610        H622   1.083       .  S
C611        C612   1.351       .  D
C611        H623   1.084       .  S
C612        C613   1.498       .  S
C612        H624   1.085       .  S
C613        C614   1.395       .  A
C613        C618   1.403       .  A
C614        C615   1.395       .  A
C614        H625   1.084       .  S
C615        C616   1.419       .  A
C615        H626   1.070       .  S
C616        C617   1.428       .  A
C617        C618   1.409       .  A
C617        H627   1.071       .  S
C618        H628   1.081       .  S
C629        C630   1.408   1_554  A
C629        C634   1.407       .  A
C630        C631   1.402       .  A
C630        H643   1.083   1_556  S
C631        C632   1.403       .  A
C631        H644   1.083       .  S
C632        C633   1.407       .  A
C632        C635   1.489       .  S
C633        C634   1.401   1_556  A
C633        H645   1.083       .  S
C634        H646   1.083       .  S
C635        C636   1.347       .  D
C635        H647   1.085       .  S
C636        C637   1.491       .  S
C636        H648   1.087       .  S
C637        C638   1.397       .  A
C637        C642   1.405       .  A
C638        C639   1.395       .  A
C638        H649   1.083       .  S
C639        C640   1.421       .  A
C639        H650   1.083       .  S
C640        C641   1.418       .  A
C641        C642   1.406       .  A
C641        H651   1.070       .  S
C642        H652   1.081       .  S
C653        C654   1.406       .  A
C653        C658   1.409       .  A
C654        C655   1.396   1_554  A
C654        H667   1.083       .  S
C655        C656   1.404       .  A
C655        H668   1.084       .  S
C656        C657   1.411       .  A
C656        C659   1.496       .  S
C657        C658   1.408   1_556  A
C657        H669   1.080       .  S
C658        H670   1.083       .  S
C659        C660   1.352       .  D
C659        H671   1.085       .  S
C660        C661   1.498       .  S
C660        H672   1.084       .  S
C661        C662   1.399       .  A
C661        C666   1.400       .  A
C662        C663   1.404       .  A
C662        H673   1.083       .  S
C663        C664   1.427       .  A
C663        H674   1.076       .  S
C664        C665   1.419       .  A
C665        C666   1.396       .  A
C665        H675   1.075       .  S
C666        H676   1.081       .  S
C677        C678   1.714       .  S
C677        C954   1.601       .  S
C677        C978   1.584       .  S
C677       C1002   1.608       .  S
C678        C882   1.604       .  S
C678        C906   1.586       .  S
C678        C930   1.591       .  S
C679        C680   1.703       .  S
C679        C799   1.586       .  S
C679        C834   1.588       .  S
C679        C847   1.589       .  S
C680        C727   1.588       .  S
C680        C762   1.588       .  S
C680        C775   1.588       .  S
O681        C697   1.277       .  A
C682        O698   1.276       .  A
C682        O695   1.278       .  A
C682        C991   1.493       .  S
O683        C696   1.276       .  A
O684        C702   1.277       .  A
O684       Cd693   2.077       .  S
O685        C699   1.277       .  A
O685      Cd1027   2.083   1_545  S
O686        C697   1.277       .  A
O686       Cd689   2.083       .  S
Zn687      O1036   2.019       .  S
Zn687       O700   2.030       .  S
O688        C699   1.279       .  A
Cd689      O1023   2.083       .  S
Cd689       O691   2.080       .  S
Cd689      O1030   2.006       .  S
Cd690      O1032   2.079   1_545  S
Cd690       O692   2.013       .  S
O691        C701   1.277       .  A
O692      Cd1027   2.006   1_545  S
Cd693       O695   2.103       .  S
O694        C701   1.276       .  A
O694      Cd1028   2.079       .  S
C696        O700   1.277       .  A
C696        C858   1.489       .  S
C697        C967   1.488       .  S
O698      Zn1025   2.019   1_545  S
C699        C943   1.493       .  S
C701        C823   1.487       .  S
C702        O703   1.276       .  A
C702        C810   1.484       .  S
O704        C720   1.276       .  A
C705        O721   1.276       .  A
C705        O718   1.276       .  A
C705        C738   1.487       .  S
O706        C719   1.277       .  A
O706       Cd713   2.087       .  S
O707        C725   1.277       .  A
O707       Cd716   2.078       .  S
O708        C722   1.276       .  A
O708      Cd1050   2.076       .  S
O709        C720   1.276       .  A
O709       Cd712   2.080       .  S
Zn710      O1059   2.032       .  S
Zn710       O723   2.025       .  S
Zn710       O715   1.952       .  S
O711        C722   1.278       .  A
Cd712      O1046   2.076   1_545  S
Cd712       O714   2.077       .  S
Cd713      O1064   2.096   1_545  S
Cd713       O715   2.016       .  S
O714        C724   1.276       .  A
O715      Cd1054   2.005   1_545  S
Cd716       O718   2.078       .  S
Cd716      O1053   2.005       .  S
O717        C724   1.277       .  A
C719        O723   1.276       .  A
C719        C871   1.489       .  S
C720        C786   1.483       .  S
O721      Zn1048   2.032       .  S
C722        C751   1.490       .  S
C724        C919   1.485       .  S
C725        O726   1.279       .  A
C725        C895   1.489       .  S
O726      Cd1051   2.096       .  S
C727        C728   1.422       .  A
C727        C732   1.424       .  A
C728        C729   1.392       .  A
C728        H741   1.077       .  S
C729        C730   1.396       .  A
C729        H742   1.084       .  S
C730        C731   1.405       .  A
C730        C733   1.490       .  S
C731        C732   1.406       .  A
C731        H743   1.081       .  S
C732        H744   1.078       .  S
C733        C734   1.349       .  D
C733        H745   1.085       .  S
C734        C735   1.494       .  S
C734        H746   1.085       .  S
C735        C736   1.405       .  A
C735        C740   1.409       .  A
C736        C737   1.403       .  A
C736        H747   1.083       .  S
C737        C738   1.407       .  A
C737        H748   1.083       .  S
C738        C739   1.405       .  A
C739        C740   1.398       .  A
C739        H749   1.083       .  S
C740        H750   1.081       .  S
C751        C752   1.407       .  A
C751        C756   1.406       .  A
C752        C753   1.404       .  A
C752        H765   1.083       .  S
C753        C754   1.406       .  A
C753        H766   1.083       .  S
C754        C755   1.410       .  A
C754        C757   1.497       .  S
C755        C756   1.399       .  A
C755        H767   1.081       .  S
C756        H768   1.083       .  S
C757        C758   1.350       .  D
C757        H769   1.085       .  S
C758        C759   1.493       .  S
C758        H770   1.084       .  S
C759        C760   1.396       .  A
C759        C764   1.405       .  A
C760        C761   1.392       .  A
C760        H771   1.084       .  S
C761        C762   1.422       .  A
C761        H772   1.077       .  S
C762        C763   1.424       .  A
C763        C764   1.407       .  A
C763        H773   1.077       .  S
C764        H774   1.081       .  S
C775        C776   1.422       .  A
C775        C780   1.425       .  A
C776        C777   1.394       .  A
C776        H789   1.076       .  S
C777        C778   1.396       .  A
C777        H790   1.084       .  S
C778        C779   1.401       .  A
C778        C781   1.486       .  S
C779        C780   1.403       .  A
C779        H791   1.082       .  S
C780        H792   1.075       .  S
C781        C782   1.348       .  D
C781        H793   1.086       .  S
C782        C783   1.490       .  S
C782        H794   1.086       .  S
C783        C784   1.405       .  A
C783        C788   1.407       .  A
C784        C785   1.402       .  A
C784        H795   1.083       .  S
C785        C786   1.406       .  A
C785        H796   1.083       .  S
C786        C787   1.405       .  A
C787        C788   1.398       .  A
C787        H797   1.083       .  S
C788        H798   1.082       .  S
C799        C800   1.423       .  A
C799        C804   1.423       .  A
C800        C801   1.391       .  A
C800        H813   1.077       .  S
C801        C802   1.395       .  A
C801        H814   1.084       .  S
C802        C803   1.404       .  A
C802        C805   1.487       .  S
C803        C804   1.403       .  A
C803        H815   1.081       .  S
C804        H816   1.077       .  S
C805        C806   1.346       .  D
C805        H817   1.086       .  S
C806        C807   1.488       .  S
C806        H818   1.085       .  S
C807        C808   1.402       .  A
C807        C812   1.408       .  A
C808        C809   1.400       .  A
C808        H819   1.083       .  S
C809        C810   1.408       .  A
C810        C811   1.405       .  A
C811        C812   1.397       .  A
C811        H821   1.083       .  S
C812        H822   1.082       .  S
C823        C824   1.408       .  A
C823        C828   1.406       .  A
C824        C825   1.402       .  A
C824        H837   1.083       .  S
C825        C826   1.403       .  A
C825        H838   1.083       .  S
C826        C827   1.407       .  A
C826        C829   1.489       .  S
C827        C828   1.398       .  A
C827        H839   1.082       .  S
C828        H840   1.083       .  S
C829        C830   1.348       .  D
C829        H841   1.085       .  S
C830        C831   1.489       .  S
C830        H842   1.086       .  S
C831        C832   1.396       .  A
C831        C836   1.402       .  A
C832        C833   1.395       .  A
C832        H843   1.084       .  S
C833        C834   1.423       .  A
C833        H844   1.076       .  S
C834        C835   1.423       .  A
C835        C836   1.402       .  A
C835        H845   1.075       .  S
C836        H846   1.081       .  S
C847        C848   1.424       .  A
C847        C852   1.424       .  A
C848        C849   1.389       .  A
C848        H861   1.076       .  S
C849        C850   1.394       .  A
C849        H862   1.084       .  S
C850        C851   1.405       .  A
C850        C853   1.489       .  S
C851        C852   1.408       .  A
C851        H863   1.082       .  S
C852        H864   1.078       .  S
C853        C854   1.347       .  D
C853        H865   1.087       .  S
C854        C855   1.492       .  S
C854        H866   1.085       .  S
C855        C856   1.404       .  A
C855        C860   1.408       .  A
C856        C857   1.404       .  A
C856        H867   1.083       .  S
C857        C858   1.409       .  A
C857        H868   1.083       .  S
C858        C859   1.405       .  A
C859        C860   1.397       .  A
C859        H869   1.083       .  S
C860        H870   1.082       .  S
C871        C872   1.408       .  A
C871        C876   1.407       .  A
C872        C873   1.403       .  A
C872        H885   1.083       .  S
C873        C874   1.404       .  A
C873        H886   1.083       .  S
C874        C875   1.407       .  A
C874        C877   1.492       .  S
C875        C876   1.399       .  A
C875        H887   1.082       .  S
C876        H888   1.083       .  S
C877        C878   1.346       .  D
C877        H889   1.087       .  S
C878        C879   1.483       .  S
C878        H890   1.086       .  S
C879        C880   1.390       .  A
C879        C884   1.400       .  A
C880        C881   1.391       .  A
C880        H891   1.084       .  S
C881        C882   1.429       .  A
C881        H892   1.072       .  S
C882        C883   1.422       .  A
C883        C884   1.408       .  A
C883        H893   1.072       .  S
C884        H894   1.083       .  S
C895        C896   1.407       .  A
C895        C900   1.406       .  A
C896        C897   1.404       .  A
C896        H909   1.083       .  S
C897        C898   1.406       .  A
C897        H910   1.083       .  S
C898        C899   1.409       .  A
C898        C901   1.496       .  S
C899        C900   1.398       .  A
C899        H911   1.081       .  S
C900        H912   1.083       .  S
C901        C902   1.350       .  D
C901        H913   1.085       .  S
C902        C903   1.491       .  S
C902        H914   1.085       .  S
C903        C904   1.396       .  A
C903        C908   1.404       .  A
C904        C905   1.393       .  A
C904        H915   1.084       .  S
C905        C906   1.424       .  A
C905        H916   1.079       .  S
C906        C907   1.418       .  A
C907        C908   1.407       .  A
C907        H917   1.068       .  S
C908        H918   1.082       .  S
C919        C920   1.406       .  A
C919        C924   1.406       .  A
C920        C921   1.401       .  A
C920        H933   1.083       .  S
C921        C922   1.404       .  A
C921        H934   1.083       .  S
C922        C923   1.406       .  A
C922        C925   1.486       .  S
C923        C924   1.400       .  A
C923        H935   1.082       .  S
C924        H936   1.083       .  S
C925        C926   1.348       .  D
C925        H937   1.087       .  S
C926        C927   1.487       .  S
C926        H938   1.086       .  S
C927        C928   1.398       .  A
C927        C932   1.399       .  A
C928        C929   1.402       .  A
C928        H939   1.083       .  S
C929        C930   1.421       .  A
C929        H940   1.083       .  S
C930        C931   1.424       .  A
C931        C932   1.396       .  A
C931        H941   1.075       .  S
C932        H942   1.083       .  S
C943        C944   1.408       .  A
C943        C948   1.407       .  A
C944        C945   1.403   1_554  A
C944        H957   1.083   1_545  S
C945        C946   1.405       .  A
C945        H958   1.083       .  S
C946        C947   1.410       .  A
C946        C949   1.498       .  S
C947        C948   1.403   1_556  A
C947        H959   1.081       .  S
C948        H960   1.083       .  S
C949        C950   1.351       .  D
C949        H961   1.084       .  S
C950        C951   1.498       .  S
C950        H962   1.085       .  S
C951        C952   1.395       .  A
C951        C956   1.403       .  A
C952        C953   1.395       .  A
C952        H963   1.084       .  S
C953        C954   1.419       .  A
C953        H964   1.070       .  S
C954        C955   1.428       .  A
C955        C956   1.409       .  A
C955        H965   1.071       .  S
C956        H966   1.081       .  S
C967        C968   1.408   1_554  A
C967        C972   1.407       .  A
C968        C969   1.402       .  A
C968        H981   1.083   1_656  S
C969        C970   1.403       .  A
C969        H982   1.083       .  S
C970        C971   1.407       .  A
C970        C973   1.489       .  S
C971        C972   1.401   1_556  A
C971        H983   1.083       .  S
C972        H984   1.083       .  S
C973        C974   1.347       .  D
C973        H985   1.085       .  S
C974        C975   1.491       .  S
C974        H986   1.087       .  S
C975        C976   1.397       .  A
C975        C980   1.405       .  A
C976        C977   1.395       .  A
C976        H987   1.083       .  S
C977        C978   1.421       .  A
C977        H988   1.083       .  S
C978        C979   1.418       .  A
C979        C980   1.406       .  A
C979        H989   1.070       .  S
C980        H990   1.081       .  S
C991        C992   1.406       .  A
C991        C996   1.409       .  A
C992        C993   1.396   1_554  A
C992       H1005   1.083       .  S
C993        C994   1.404       .  A
C993       H1006   1.084       .  S
C994        C995   1.411       .  A
C994        C997   1.496       .  S
C995        C996   1.408   1_556  A
C995       H1007   1.080       .  S
C996       H1008   1.083       .  S
C997        C998   1.352       .  D
C997       H1009   1.085       .  S
C998        C999   1.498       .  S
C998       H1010   1.084       .  S
C999       C1000   1.399       .  A
C999       C1004   1.400       .  A
C1000      C1001   1.404       .  A
C1000      H1011   1.083       .  S
C1001      C1002   1.427       .  A
C1001      H1012   1.076       .  S
C1002      C1003   1.419       .  A
C1003      C1004   1.396       .  A
C1003      H1013   1.075       .  S
C1004      H1014   1.081       .  S
C1015      C1016   1.714       .  S
C1015      C1292   1.601       .  S
C1015      C1316   1.584       .  S
C1015      C1340   1.608       .  S
C1016      C1220   1.604       .  S
C1016      C1244   1.586       .  S
C1016      C1268   1.591       .  S
C1017      C1018   1.703       .  S
C1017      C1137   1.586       .  S
C1017      C1172   1.588       .  S
C1017      C1185   1.589       .  S
C1018      C1065   1.588       .  S
C1018      C1100   1.588       .  S
C1018      C1113   1.588       .  S
O1019      C1035   1.277       .  A
C1020      O1036   1.276       .  A
C1020      O1033   1.278       .  A
C1020      C1329   1.493       .  S
O1021      C1034   1.276       .  A
O1022      C1040   1.277       .  A
O1022     Cd1031   2.077       .  S
O1023      C1037   1.277       .  A
O1024      C1035   1.277       .  A
O1024     Cd1027   2.083       .  S
Zn1025     O1038   2.030       .  S
O1026      C1037   1.279       .  A
Cd1027     O1029   2.080       .  S
Cd1028     O1030   2.013       .  S
O1029      C1039   1.277       .  A
Cd1031     O1033   2.103       .  S
O1032      C1039   1.276       .  A
C1034      O1038   1.277       .  A
C1034      C1196   1.489       .  S
C1035      C1305   1.488       .  S
C1037      C1281   1.493       .  S
C1039      C1161   1.487       .  S
C1040      O1041   1.276       .  A
C1040      C1148   1.484       .  S
O1042      C1058   1.276       .  A
C1043      O1059   1.276   1_565  A
C1043      O1056   1.276       .  A
C1043      C1076   1.487       .  S
O1044      C1057   1.277       .  A
O1044     Cd1051   2.087       .  S
O1045      C1063   1.277       .  A
O1045     Cd1054   2.078       .  S
O1046      C1060   1.276       .  A
O1047      C1058   1.276       .  A
O1047     Cd1050   2.080       .  S
Zn1048     O1061   2.025       .  S
Zn1048     O1053   1.952       .  S
O1049      C1060   1.278       .  A
Cd1050     O1052   2.077       .  S
Cd1051     O1053   2.016       .  S
O1052      C1062   1.276       .  A
Cd1054     O1056   2.078       .  S
O1055      C1062   1.277       .  A
C1057      O1061   1.276       .  A
C1057      C1209   1.489       .  S
C1058      C1124   1.483       .  S
C1060      C1089   1.490       .  S
C1062      C1257   1.485       .  S
C1063      O1064   1.279       .  A
C1063      C1233   1.489       .  S
C1065      C1066   1.422       .  A
C1065      C1070   1.424       .  A
C1066      C1067   1.392       .  A
C1066      H1079   1.077       .  S
C1067      C1068   1.396       .  A
C1067      H1080   1.084       .  S
C1068      C1069   1.405       .  A
C1068      C1071   1.490       .  S
C1069      C1070   1.406       .  A
C1069      H1081   1.081       .  S
C1070      H1082   1.078       .  S
C1071      C1072   1.349       .  D
C1071      H1083   1.085       .  S
C1072      C1073   1.494       .  S
C1072      H1084   1.085       .  S
C1073      C1074   1.405       .  A
C1073      C1078   1.409       .  A
C1074      C1075   1.403       .  A
C1074      H1085   1.083       .  S
C1075      C1076   1.407       .  A
C1075      H1086   1.083   1_565  S
C1076      C1077   1.405       .  A
C1077      C1078   1.398       .  A
C1077      H1087   1.083       .  S
C1078      H1088   1.081       .  S
C1089      C1090   1.407       .  A
C1089      C1094   1.406       .  A
C1090      C1091   1.404       .  A
C1090      H1103   1.083       .  S
C1091      C1092   1.406       .  A
C1091      H1104   1.083       .  S
C1092      C1093   1.410       .  A
C1092      C1095   1.497       .  S
C1093      C1094   1.399       .  A
C1093      H1105   1.081       .  S
C1094      H1106   1.083       .  S
C1095      C1096   1.350       .  D
C1095      H1107   1.085       .  S
C1096      C1097   1.493       .  S
C1096      H1108   1.084       .  S
C1097      C1098   1.396       .  A
C1097      C1102   1.405       .  A
C1098      C1099   1.392       .  A
C1098      H1109   1.084       .  S
C1099      C1100   1.422       .  A
C1099      H1110   1.077       .  S
C1100      C1101   1.424       .  A
C1101      C1102   1.407       .  A
C1101      H1111   1.077       .  S
C1102      H1112   1.081       .  S
C1113      C1114   1.422       .  A
C1113      C1118   1.425       .  A
C1114      C1115   1.394       .  A
C1114      H1127   1.076       .  S
C1115      C1116   1.396       .  A
C1115      H1128   1.084       .  S
C1116      C1117   1.401       .  A
C1116      C1119   1.486       .  S
C1117      C1118   1.403       .  A
C1117      H1129   1.082       .  S
C1118      H1130   1.075       .  S
C1119      C1120   1.348       .  D
C1119      H1131   1.086       .  S
C1120      C1121   1.490       .  S
C1120      H1132   1.086       .  S
C1121      C1122   1.405       .  A
C1121      C1126   1.407       .  A
C1122      C1123   1.402       .  A
C1122      H1133   1.083       .  S
C1123      C1124   1.406       .  A
C1123      H1134   1.083       .  S
C1124      C1125   1.405       .  A
C1125      C1126   1.398       .  A
C1125      H1135   1.083       .  S
C1126      H1136   1.082       .  S
C1137      C1138   1.423       .  A
C1137      C1142   1.423       .  A
C1138      C1139   1.391       .  A
C1138      H1151   1.077       .  S
C1139      C1140   1.395       .  A
C1139      H1152   1.084       .  S
C1140      C1141   1.404       .  A
C1140      C1143   1.487       .  S
C1141      C1142   1.403       .  A
C1141      H1153   1.081       .  S
C1142      H1154   1.077       .  S
C1143      C1144   1.346       .  D
C1143      H1155   1.086       .  S
C1144      C1145   1.488       .  S
C1144      H1156   1.085       .  S
C1145      C1146   1.402       .  A
C1145      C1150   1.408       .  A
C1146      C1147   1.400       .  A
C1146      H1157   1.083       .  S
C1147      C1148   1.408       .  A
C1148      C1149   1.405       .  A
C1149      C1150   1.397       .  A
C1149      H1159   1.083       .  S
C1150      H1160   1.082       .  S
C1161      C1162   1.408       .  A
C1161      C1166   1.406       .  A
C1162      C1163   1.402       .  A
C1162      H1175   1.083       .  S
C1163      C1164   1.403       .  A
C1163      H1176   1.083       .  S
C1164      C1165   1.407       .  A
C1164      C1167   1.489       .  S
C1165      C1166   1.398       .  A
C1165      H1177   1.082       .  S
C1166      H1178   1.083       .  S
C1167      C1168   1.348       .  D
C1167      H1179   1.085       .  S
C1168      C1169   1.489       .  S
C1168      H1180   1.086       .  S
C1169      C1170   1.396       .  A
C1169      C1174   1.402       .  A
C1170      C1171   1.395       .  A
C1170      H1181   1.084       .  S
C1171      C1172   1.423       .  A
C1171      H1182   1.076       .  S
C1172      C1173   1.423       .  A
C1173      C1174   1.402       .  A
C1173      H1183   1.075       .  S
C1174      H1184   1.081       .  S
C1185      C1186   1.424       .  A
C1185      C1190   1.424       .  A
C1186      C1187   1.389       .  A
C1186      H1199   1.076       .  S
C1187      C1188   1.394       .  A
C1187      H1200   1.084       .  S
C1188      C1189   1.405       .  A
C1188      C1191   1.489       .  S
C1189      C1190   1.408       .  A
C1189      H1201   1.082       .  S
C1190      H1202   1.078       .  S
C1191      C1192   1.347       .  D
C1191      H1203   1.087       .  S
C1192      C1193   1.492       .  S
C1192      H1204   1.085       .  S
C1193      C1194   1.404       .  A
C1193      C1198   1.408       .  A
C1194      C1195   1.404       .  A
C1194      H1205   1.083       .  S
C1195      C1196   1.409       .  A
C1195      H1206   1.083       .  S
C1196      C1197   1.405       .  A
C1197      C1198   1.397       .  A
C1197      H1207   1.083       .  S
C1198      H1208   1.082       .  S
C1209      C1210   1.408       .  A
C1209      C1214   1.407       .  A
C1210      C1211   1.403       .  A
C1210      H1223   1.083       .  S
C1211      C1212   1.404       .  A
C1211      H1224   1.083       .  S
C1212      C1213   1.407       .  A
C1212      C1215   1.492       .  S
C1213      C1214   1.399       .  A
C1213      H1225   1.082       .  S
C1214      H1226   1.083       .  S
C1215      C1216   1.346       .  D
C1215      H1227   1.087       .  S
C1216      C1217   1.483       .  S
C1216      H1228   1.086       .  S
C1217      C1218   1.390       .  A
C1217      C1222   1.400       .  A
C1218      C1219   1.391       .  A
C1218      H1229   1.084       .  S
C1219      C1220   1.429       .  A
C1219      H1230   1.072       .  S
C1220      C1221   1.422       .  A
C1221      C1222   1.408       .  A
C1221      H1231   1.072       .  S
C1222      H1232   1.083       .  S
C1233      C1234   1.407       .  A
C1233      C1238   1.406       .  A
C1234      C1235   1.404       .  A
C1234      H1247   1.083       .  S
C1235      C1236   1.406       .  A
C1235      H1248   1.083       .  S
C1236      C1237   1.409       .  A
C1236      C1239   1.496       .  S
C1237      C1238   1.398       .  A
C1237      H1249   1.081       .  S
C1238      H1250   1.083       .  S
C1239      C1240   1.350       .  D
C1239      H1251   1.085       .  S
C1240      C1241   1.491       .  S
C1240      H1252   1.085       .  S
C1241      C1242   1.396       .  A
C1241      C1246   1.404       .  A
C1242      C1243   1.393       .  A
C1242      H1253   1.084       .  S
C1243      C1244   1.424       .  A
C1243      H1254   1.079       .  S
C1244      C1245   1.418       .  A
C1245      C1246   1.407       .  A
C1245      H1255   1.068       .  S
C1246      H1256   1.082       .  S
C1257      C1258   1.406       .  A
C1257      C1262   1.406       .  A
C1258      C1259   1.401       .  A
C1258      H1271   1.083       .  S
C1259      C1260   1.404       .  A
C1259      H1272   1.083       .  S
C1260      C1261   1.406       .  A
C1260      C1263   1.486       .  S
C1261      C1262   1.400       .  A
C1261      H1273   1.082       .  S
C1262      H1274   1.083       .  S
C1263      C1264   1.348       .  D
C1263      H1275   1.087       .  S
C1264      C1265   1.487       .  S
C1264      H1276   1.086       .  S
C1265      C1266   1.398       .  A
C1265      C1270   1.399       .  A
C1266      C1267   1.402       .  A
C1266      H1277   1.083       .  S
C1267      C1268   1.421       .  A
C1267      H1278   1.083       .  S
C1268      C1269   1.424       .  A
C1269      C1270   1.396       .  A
C1269      H1279   1.075       .  S
C1270      H1280   1.083       .  S
C1281      C1282   1.408       .  A
C1281      C1286   1.407       .  A
C1282      C1283   1.403   1_554  A
C1282      H1295   1.083       .  S
C1283      C1284   1.405       .  A
C1283      H1296   1.083       .  S
C1284      C1285   1.410       .  A
C1284      C1287   1.498       .  S
C1285      C1286   1.402   1_556  A
C1285      H1297   1.081       .  S
C1286      H1298   1.083       .  S
C1287      C1288   1.351       .  D
C1287      H1299   1.084       .  S
C1288      C1289   1.498       .  S
C1288      H1300   1.085       .  S
C1289      C1290   1.395       .  A
C1289      C1294   1.403       .  A
C1290      C1291   1.395       .  A
C1290      H1301   1.084       .  S
C1291      C1292   1.419       .  A
C1291      H1302   1.070       .  S
C1292      C1293   1.428       .  A
C1293      C1294   1.409       .  A
C1293      H1303   1.071       .  S
C1294      H1304   1.081       .  S
C1305      C1306   1.408   1_554  A
C1305      C1310   1.407       .  A
C1306      C1307   1.402       .  A
C1306      H1319   1.083   1_656  S
C1307      C1308   1.403       .  A
C1307      H1320   1.083       .  S
C1308      C1309   1.407       .  A
C1308      C1311   1.489       .  S
C1309      C1310   1.401   1_556  A
C1309      H1321   1.083       .  S
C1310      H1322   1.083       .  S
C1311      C1312   1.347       .  D
C1311      H1323   1.085       .  S
C1312      C1313   1.491       .  S
C1312      H1324   1.087       .  S
C1313      C1314   1.397       .  A
C1313      C1318   1.405       .  A
C1314      C1315   1.395       .  A
C1314      H1325   1.083       .  S
C1315      C1316   1.421       .  A
C1315      H1326   1.083       .  S
C1316      C1317   1.418       .  A
C1317      C1318   1.406       .  A
C1317      H1327   1.070       .  S
C1318      H1328   1.081       .  S
C1329      C1330   1.406       .  A
C1329      C1334   1.409       .  A
C1330      C1331   1.396   1_554  A
C1330      H1343   1.083       .  S
C1331      C1332   1.404       .  A
C1331      H1344   1.084       .  S
C1332      C1333   1.411       .  A
C1332      C1335   1.496       .  S
C1333      C1334   1.408   1_556  A
C1333      H1345   1.080       .  S
C1334      H1346   1.083       .  S
C1335      C1336   1.352       .  D
C1335      H1347   1.085       .  S
C1336      C1337   1.498       .  S
C1336      H1348   1.084       .  S
C1337      C1338   1.399       .  A
C1337      C1342   1.400       .  A
C1338      C1339   1.404       .  A
C1338      H1349   1.083       .  S
C1339      C1340   1.427       .  A
C1339      H1350   1.076       .  S
C1340      C1341   1.419       .  A
C1341      C1342   1.396       .  A
C1341      H1351   1.075       .  S
C1342      H1352   1.081       .  S
