geometry optimzed in LAMMPS
_audit_creation_date              2020-12-01 
_audit_creation_method            'lammps2cif' 
_symmetry_space_group_name_H-M    'P1' 
_symmetry_Int_Tables_number       1 
_symmetry_cell_setting            triclinic 
loop_ 
_symmetry_equiv_pos_as_xyz 
  x,y,z 
_cell_length_a                    30.29956471 
_cell_length_b                    57.30937949055238 
_cell_length_c                    24.892267709147642 
_cell_angle_alpha                 89.99628339571446 
_cell_angle_beta                  89.99688623850774 
_cell_angle_gamma                 90.01243885755596 
loop_ 
_atom_site_label 
_atom_site_type_symbol 
_atom_site_fract_x 
_atom_site_fract_y 
_atom_site_fract_z 
_atom_site_charge 
C1          C  0.68765098  0.81583410  0.27090732     0.88000
C2          C  0.70921694  0.80239906  0.31710399    -0.52200
C3          C  0.70683032  0.77876977  0.31156768     0.10900
C4          C  0.68179124  0.77070462  0.26087035     0.21900
C5          C  0.71003664  0.80639562  0.22002099    -0.52900
C6          C  0.70748059  0.78270775  0.21501451     0.11000
C7          C  0.64015588  0.80709070  0.26845663    -0.52500
C8          C  0.63662321  0.78349763  0.26319922     0.11600
H9          H  0.72795928  0.81081100  0.34891366     0.16100
H10         H  0.67949205  0.75143961  0.25669341     0.01900
H11         H  0.72902317  0.81725589  0.19268641     0.16400
H12         H  0.61167407  0.81858031  0.27068897     0.16200
C13         C  0.87742063  0.68945130  0.51648819     0.88000
C14         C  0.85256846  0.70138807  0.06264677    -0.52200
C15         C  0.85236650  0.72516283  0.05926708     0.10900
C16         C  0.87798899  0.73483236  0.51054198     0.21900
C17         C  0.85576131  0.69895887  0.46533770    -0.52900
C18         C  0.85547174  0.72271559  0.46250111     0.11000
C19         C  0.92381545  0.69985800  0.51731576    -0.52500
C20         C  0.92451779  0.72361326  0.51411023     0.11600
H21         H  0.83424461  0.69185886  0.09310534     0.16100
H22         H  0.87801047  0.75418744  0.50788193     0.01900
H23         H  0.83895540  0.68795817  0.43623169     0.16400
H24         H  0.95360031  0.68934202  0.51967379     0.16200
N25         N  0.74549772  0.96668099  0.25951814    -0.25800
N26         N  0.78040393  0.95602195  0.23906134    -0.33600
C27         C  0.77651696  0.93293526  0.24647429     0.02600
C28         C  0.73736834  0.92877774  0.27269246     0.08600
C29         C  0.71822660  0.95043264  0.28040676    -0.04500
H30         H  0.79939008  0.92005839  0.23114536     0.09300
H31         H  0.68617074  0.95403848  0.29764302     0.10500
Cu32       Cu  0.82899814  0.97192518  0.19430139     0.44200
Cu33       Cu  0.73555739  0.00260373  0.25333019     0.42000
Cu34       Cu  0.81441927  0.03147454  0.16319576     0.43900
N35         N  0.86961607  0.98943204  0.14164410    -0.33100
N36         N  0.86395838  0.01164644  0.12944868    -0.27400
C37         C  0.89658814  0.01851367  0.09645462    -0.03500
C38         C  0.92356813  0.99954543  0.08723456     0.08700
C39         C  0.90588532  0.98144234  0.11668557     0.02500
H40         H  0.90159818  0.03623572  0.08274959     0.10200
H41         H  0.91955251  0.96414737  0.12190794     0.09200
N42         N  0.76503723  0.04841861  0.20480968    -0.34600
N43         N  0.73646467  0.03837771  0.23777641    -0.26800
C44         C  0.71018639  0.05501828  0.25886277    -0.02000
C45         C  0.72313760  0.07627349  0.23785282     0.06600
C46         C  0.75781271  0.07150879  0.20398265     0.04700
H47         H  0.68411970  0.05188662  0.28767427     0.09800
H48         H  0.77692217  0.08393020  0.18094233     0.08600
N49         N  0.81458402  0.46594200  0.01983273    -0.25800
N50         N  0.77750494  0.45503004  0.03248462    -0.33600
C51         C  0.78410325  0.43188716  0.03049924     0.02600
C52         C  0.82727147  0.42799845  0.01591617     0.08600
C53         C  0.84591470  0.44984573  0.00941295    -0.04500
H54         H  0.75939549  0.41887985  0.03990092     0.09300
H55         H  0.87972349  0.45377014  0.99875587     0.10500
Cu56       Cu  0.71958493  0.47125190  0.05494060     0.44200
Cu57       Cu  0.82063222  0.50222334  0.01977205     0.42000
Cu58       Cu  0.72062177  0.53293640  0.06391575     0.43900
N59         N  0.66604719  0.49014982  0.08183811    -0.33100
N60         N  0.66628462  0.51314748  0.08538302    -0.27400
C61         C  0.62745085  0.52033517  0.10571975    -0.03500
C62         C  0.60194529  0.50081683  0.11537175     0.08700
C63         C  0.62716654  0.48198862  0.09979340     0.02500
H64         H  0.61870595  0.53833959  0.11331710     0.10200
H65         H  0.61820634  0.46373182  0.10180983     0.09200
N66         N  0.77922171  0.54918653  0.04321062    -0.34600
N67         N  0.81556450  0.53841254  0.02713008    -0.26800
C68         C  0.84708787  0.55454970  0.01784714    -0.02000
C69         C  0.82942880  0.57628385  0.02878407     0.06600
C70         C  0.78658449  0.57228213  0.04463979     0.04700
H71         H  0.88025438  0.55071747  0.00439863     0.09800
H72         H  0.76244292  0.58519453  0.05653328     0.08600
C73         C  0.87890489  0.31515517  0.01106329     0.88000
C74         C  0.85526672  0.30347095  0.46374342    -0.52200
C75         C  0.85631092  0.27969314  0.46548324     0.10900
C76         C  0.88192872  0.26974419  0.01388319     0.21900
C77         C  0.85723289  0.30464770  0.06120314    -0.52900
C78         C  0.85818063  0.28085150  0.06244937     0.11000
C79         C  0.92582429  0.30551980  0.01021844    -0.52500
C80         C  0.92784965  0.28176307  0.01159700     0.11600
H81         H  0.83661944  0.31311273  0.43376605     0.16100
H82         H  0.88300945  0.25037080  0.01503825     0.01900
H83         H  0.83952142  0.31501426  0.09073233     0.16400
H84         H  0.95499802  0.31653072  0.00830945     0.16200
C85         C  0.68529122  0.19015767  0.26201146     0.88000
C86         C  0.70927604  0.20148406  0.21440250    -0.52200
C87         C  0.70895107  0.22529095  0.21570637     0.10900
C88         C  0.68350222  0.23557851  0.26391907     0.21900
C89         C  0.70729039  0.20064393  0.31187911    -0.52900
C90         C  0.70700369  0.22444013  0.31262572     0.11000
C91         C  0.63867583  0.20013085  0.26103611    -0.52500
C92         C  0.63722401  0.22387777  0.26195995     0.11600
H93         H  0.72773583  0.19158357  0.18470922     0.16100
H94         H  0.68292852  0.25496025  0.26477787     0.01900
H95         H  0.72480265  0.19024338  0.34152606     0.16400
H96         H  0.60921648  0.18931941  0.25950650     0.16200
C97         C  0.37812578  0.82018220  0.25339658     0.88000
C98         C  0.35625018  0.80938586  0.20374421    -0.52200
C99         C  0.35610826  0.78558636  0.20402592     0.10900
C100        C  0.37906221  0.77475436  0.25345307     0.21900
C101        C  0.35363638  0.80940803  0.30123037    -0.52900
C102        C  0.35356216  0.78560257  0.30099760     0.11000
C103        C  0.42454670  0.80997988  0.25520310    -0.52500
C104        C  0.42553171  0.78622068  0.25520510     0.11600
H105        H  0.33924643  0.81962357  0.17336890     0.16100
H106        H  0.37926697  0.75536716  0.25345712     0.01900
H107        H  0.33522751  0.81965723  0.33034110     0.16400
H108        H  0.45421227  0.82064420  0.25621862     0.16200
C109        C  0.18326425  0.69566804  0.00393910     0.88000
C110        C  0.20487312  0.70656836  0.45427055    -0.52200
C111        C  0.20396412  0.73038440  0.45420509     0.10900
C112        C  0.18028877  0.74108335  0.00333618     0.21900
C113        C  0.20706954  0.70688809  0.05176421    -0.52900
C114        C  0.20612976  0.73069374  0.05113779     0.11000
C115        C  0.13646839  0.70530299  0.00540951    -0.52500
C116        C  0.13435254  0.72901046  0.00515191     0.11600
H117        H  0.22251762  0.69644646  0.42424029     0.16100
H118        H  0.17918480  0.76046169  0.00306980     0.01900
H119        H  0.22585070  0.69695354  0.08109925     0.16400
H120        H  0.10729302  0.69426614  0.00675082     0.16200
N121        N  0.20608175  0.54288049  0.05182436    -0.25800
N122        N  0.23408937  0.55267133  0.08585214    -0.33600
C123        C  0.23282533  0.57591001  0.08007973     0.02600
C124        C  0.20266017  0.58109995  0.04069937     0.08600
C125        C  0.18609155  0.55990015  0.02332391    -0.04500
H126        H  0.25290727  0.58809265  0.10255887     0.09300
H127        H  0.16157761  0.55703747  0.99242550     0.10500
Cu128      Cu  0.27605307  0.53507939  0.13654316     0.44200
Cu129      Cu  0.19684395  0.50680594  0.04713242     0.42000
Cu130      Cu  0.26533024  0.47483228  0.14485641     0.43900
N131        N  0.32455500  0.51462052  0.16979835    -0.33100
N132        N  0.32097758  0.49171501  0.17240039    -0.27400
C133        C  0.36093440  0.48251418  0.18267607    -0.03500
C134        C  0.39078665  0.50064761  0.18699303     0.08700
C135        C  0.36670980  0.52072565  0.17856140     0.02500
H136        H  0.36853457  0.46408629  0.18067445     0.10200
H137        H  0.37973307  0.53811105  0.17248058     0.09200
N138        N  0.21762806  0.45989706  0.09688059    -0.34600
N139        N  0.19446892  0.47074282  0.05929030    -0.26800
C140        C  0.17244829  0.45459824  0.03029429    -0.02000
C141        C  0.18230590  0.43285438  0.05127654     0.06600
C142        C  0.21080916  0.43685199  0.09316626     0.04700
H143        H  0.15264426  0.45833360  0.99517280     0.09800
H144        H  0.22794041  0.42385888  0.11682185     0.08600
C145        C  0.18007248  0.31933503  0.00057327     0.88000
C146        C  0.20598925  0.30864323  0.04751182    -0.52200
C147        C  0.20852565  0.28486853  0.04553898     0.10900
C148        C  0.18390281  0.27396102  0.99744249     0.21900
C149        C  0.20281609  0.30990532  0.45001675    -0.52900
C150        C  0.20540898  0.28612243  0.44867704     0.11000
C151        C  0.13489623  0.30769772  0.00201383    -0.52500
C152        C  0.13637612  0.28399394  0.00045681     0.11600
H153        H  0.22320834  0.31900503  0.07747129     0.16100
H154        H  0.18569786  0.25460508  0.99606149     0.01900
H155        H  0.21849045  0.32103523  0.42025457     0.16400
H156        H  0.10413997  0.31742162  0.00432471     0.16200
C157        C  0.37377606  0.19401113  0.25167451     0.88000
C158        C  0.35073742  0.20642172  0.29840616    -0.52200
C159        C  0.35380999  0.23013495  0.29619581     0.10900
C160        C  0.38073483  0.23927047  0.24797727     0.21900
C161        C  0.35343610  0.20480004  0.20101818    -0.52900
C162        C  0.35643215  0.22855759  0.19932917     0.11000
C163        C  0.42145891  0.20250844  0.25292134    -0.52500
C164        C  0.42557995  0.22617074  0.25110345     0.11600
H165        H  0.33093646  0.19735008  0.32824500     0.16100
H166        H  0.38350239  0.25859172  0.24646369     0.01900
H167        H  0.33499364  0.19474660  0.17157535     0.16400
H168        H  0.44962454  0.19081210  0.25540443     0.16200
N169        N  0.31330279  0.04305596  0.23958383    -0.25800
N170        N  0.27938993  0.05342201  0.21603128    -0.33600
C171        C  0.28358216  0.07662189  0.22097650     0.02600
C172        C  0.32187513  0.08111579  0.24873042     0.08600
C173        C  0.34016737  0.05957775  0.26002110    -0.04500
H174        H  0.26148819  0.08928156  0.20319446     0.09300
H175        H  0.37143346  0.05617399  0.27948061     0.10500
Cu176      Cu  0.23147373  0.03684303  0.17125613     0.44200
Cu177      Cu  0.32329236  0.00710449  0.23831357     0.42000
Cu178      Cu  0.24582670  0.97652945  0.15071011     0.43900
N179        N  0.19054844  0.01767298  0.12195275    -0.33100
N180        N  0.19620341  0.99511234  0.11388333    -0.27400
C181        C  0.16264826  0.98690215  0.08409473    -0.03500
C182        C  0.13491705  0.00531436  0.07259647     0.08700
C183        C  0.15326106  0.02453448  0.09741918     0.02500
H184        H  0.15715158  0.96865666  0.07512280     0.10200
H185        H  0.13896352  0.04177281  0.10082469     0.09200
N186        N  0.29525081  0.96046319  0.19377537    -0.34600
N187        N  0.32357876  0.97117085  0.22588061    -0.26800
C188        C  0.35063159  0.95507506  0.24771028    -0.02000
C189        C  0.33836347  0.93346743  0.22807997     0.06600
C190        C  0.30331751  0.93746104  0.19427324     0.04700
H191        H  0.37687868  0.95882350  0.27587785     0.09800
H192        H  0.28470997  0.92459925  0.17192136     0.08600
C193        C  0.36924386  0.16855119  0.25421377    -0.17000
C194        C  0.36326794  0.14779123  0.25665036     0.07100
C195        C  0.35305887  0.12379223  0.25817500     0.08900
C196        C  0.34092506  0.10379174  0.25642774    -0.17800
C197        C  0.23519662  0.27433477  0.41228149    -0.17000
C198        C  0.26338235  0.26534352  0.38486247     0.07100
C199        C  0.29755260  0.25476521  0.35458462     0.08900
C200        C  0.32531923  0.24462463  0.32871303    -0.17800
C201        C  0.23922186  0.27205374  0.07901479    -0.17000
C202        C  0.26756597  0.26252396  0.10531160     0.07100
C203        C  0.30146835  0.25177555  0.13590553     0.08900
C204        C  0.32873210  0.24198132  0.16335034    -0.17800
C205        C  0.17294723  0.41023345  0.02933431    -0.17000
C206        C  0.17119472  0.38998246  0.01652279     0.07100
C207        C  0.17378538  0.36574294  0.00715269     0.08900
C208        C  0.17723434  0.34487883  0.00272537    -0.17800
C209        C  0.19212435  0.60419969  0.02255314    -0.17000
C210        C  0.18753367  0.62466022  0.01299900     0.07100
C211        C  0.18544132  0.64909859  0.00689451     0.08900
C212        C  0.18469733  0.67009271  0.00451982    -0.17800
C213        C  0.37713948  0.84575651  0.25316493    -0.17000
C214        C  0.37407259  0.86669747  0.25153033     0.07100
C215        C  0.36679233  0.89091398  0.24723512     0.08900
C216        C  0.35641802  0.91098692  0.24059597    -0.17800
C217        C  0.23584438  0.74408872  0.08461537    -0.17000
C218        C  0.26430253  0.75347011  0.11094931     0.07100
C219        C  0.29891485  0.76354276  0.14147530     0.08900
C220        C  0.32707127  0.77268227  0.16871701    -0.17800
C221        C  0.23278631  0.74355595  0.41910243    -0.17000
C222        C  0.26074070  0.75297546  0.39202240     0.07100
C223        C  0.29513121  0.76327497  0.36147433     0.08900
C224        C  0.32353490  0.77260251  0.33492239    -0.17800
C225        C  0.46923331  0.23673924  0.25308666    -0.17000
C226        C  0.50859790  0.24062886  0.25545236     0.07100
C227        C  0.55561985  0.24028181  0.25834529     0.08900
C228        C  0.59470902  0.23566590  0.26041135    -0.17800
C229        C  0.97049240  0.27014639  0.00982471    -0.17000
C230        C  0.00957273  0.26559931  0.00754745     0.07100
C231        C  0.05653609  0.26576226  0.00455882     0.10900
C232        C  0.09535740  0.27087875  0.00226573    -0.17800
C233        C  0.73880948  0.23872720  0.18240220    -0.17000
C234        C  0.76715490  0.24829785  0.15618024     0.07100
C235        C  0.80151152  0.25867137  0.12564759     0.08900
C236        C  0.82941790  0.26797466  0.09824859    -0.17800
C237        C  0.73637919  0.23715231  0.34784473    -0.17000
C238        C  0.76466568  0.24622452  0.37497231     0.07100
C239        C  0.79913393  0.25637826  0.40552610     0.08900
C240        C  0.82722940  0.26595997  0.43200157    -0.17800
C241        C  0.43779073  0.49889842  0.18154471    -0.17000
C242        C  0.47661115  0.49864687  0.17122777     0.07100
C243        C  0.52099669  0.49929444  0.15432682     0.08900
C244        C  0.55817820  0.50010368  0.13732772    -0.17800
C245        C  0.87636017  0.34073716  0.00942248    -0.17000
C246        C  0.87106877  0.36159244  0.00870853     0.07100
C247        C  0.86077155  0.38562405  0.00917473     0.08900
C248        C  0.84796308  0.40552637  0.01115670    -0.17800
C249        C  0.09032159  0.00350244  0.05417213    -0.17000
C250        C  0.05112675  0.00206643  0.04761322     0.07100
C251        C  0.00491287  0.00073870  0.05125181     0.08900
C252        C  0.96657685  0.00000613  0.06350925    -0.17800
C253        C  0.68671092  0.16457519  0.26098710    -0.17000
C254        C  0.68978652  0.14362231  0.25943758     0.07100
C255        C  0.69663426  0.11933361  0.25568628     0.08900
C256        C  0.70626964  0.09911041  0.24962399    -0.17800
C257        C  0.09138352  0.74026124  0.00700287    -0.17000
C258        C  0.05184723  0.74359698  0.00886058     0.07100
C259        C  0.00494928  0.74180915  0.01101173     0.08900
C260        C  0.96642721  0.73600679  0.01260843    -0.17800
C261        C  0.87626667  0.66383991  0.51943270    -0.17000
C262        C  0.87200172  0.64291386  0.52099392     0.07100
C263        C  0.86263262  0.61876835  0.02267516     0.08900
C264        C  0.85019280  0.59878802  0.02473727    -0.17800
C265        C  0.59319238  0.77274903  0.26025683    -0.17000
C266        C  0.55382673  0.76884102  0.25861509     0.07100
C267        C  0.50679118  0.76935397  0.25727313     0.08900
C268        C  0.46778827  0.77419589  0.25631954    -0.17800
C269        C  0.69155262  0.84122983  0.27687820    -0.17000
C270        C  0.69702022  0.86198447  0.28109584     0.07100
C271        C  0.70666136  0.88605444  0.28338790     0.08900
C272        C  0.71840832  0.90612683  0.28138967    -0.17800
C273        C  0.82649906  0.73469917  0.42559362    -0.17000
C274        C  0.79834103  0.74353083  0.39793191     0.07100
C275        C  0.76374663  0.75377297  0.36786647     0.08900
C276        C  0.73552249  0.76383659  0.34263804    -0.17800
C277        C  0.73540938  0.77017212  0.17760356    -0.17000
C278        C  0.76227465  0.76050325  0.14933783     0.07100
C279        C  0.79538172  0.74933491  0.11822881     0.08900
C280        C  0.82289302  0.73911164  0.09198527    -0.17800
C281        C  0.68765937  0.81583602  0.77092100     0.88000
C282        C  0.70922284  0.80239928  0.81711672    -0.52200
C283        C  0.70683445  0.77877018  0.81157701     0.10900
C284        C  0.68179602  0.77070694  0.76087763     0.21900
C285        C  0.71004575  0.80639829  0.72003427    -0.52900
C286        C  0.70748761  0.78271059  0.71502451     0.11000
C287        C  0.64016358  0.80709380  0.76846707    -0.52500
C288        C  0.63662906  0.78350095  0.76320626     0.11600
H289        H  0.72796551  0.81080998  0.84892806     0.16100
H290        H  0.67949526  0.75144209  0.75669799     0.01900
H291        H  0.72903364  0.81725874  0.69270183     0.16400
H292        H  0.61168262  0.81858404  0.77069955     0.16200
C293        C  0.87743241  0.68945288  0.01649316     0.88000
C294        C  0.85255863  0.70138646  0.56264350    -0.52200
C295        C  0.85236005  0.72516133  0.55926655     0.10900
C296        C  0.87799463  0.73483380  0.01054178     0.21900
C297        C  0.85577209  0.69895849  0.96534128    -0.52900
C298        C  0.85547938  0.72271517  0.96250207     0.11000
C299        C  0.92382577  0.69986132  0.01731998    -0.52500
C300        C  0.92452491  0.72361652  0.01411162     0.11600
H301        H  0.83423402  0.69185731  0.59310146     0.16100
H302        H  0.87801354  0.75418882  0.00787951     0.01900
H303        H  0.83896770  0.68795655  0.93623653     0.16400
H304        H  0.95361204  0.68934650  0.01967920     0.16200
N305        N  0.74549846  0.96668349  0.75953870    -0.25800
N306        N  0.78040871  0.95602555  0.73908907    -0.33600
C307        C  0.77652522  0.93293893  0.74650552     0.02600
C308        C  0.73737467  0.92878025  0.77271847     0.08600
C309        C  0.71822816  0.95043444  0.78042595    -0.04500
H310        H  0.79940179  0.92006264  0.73118102     0.09300
H311        H  0.68616942  0.95403919  0.79765578     0.10500
Cu312      Cu  0.82900194  0.97192972  0.69432957     0.44200
Cu313      Cu  0.73555227  0.00260541  0.75334146     0.42000
Cu314      Cu  0.81440889  0.03147596  0.66319894     0.43900
N315        N  0.86961455  0.98943508  0.64166371    -0.33100
N316        N  0.86395143  0.01164809  0.62945833    -0.27400
C317        C  0.89657839  0.01851442  0.59645915    -0.03500
C318        C  0.92356211  0.99954698  0.58724624     0.08700
C319        C  0.90588442  0.98144542  0.61670665     0.02500
H320        H  0.90158390  0.03623557  0.58274531     0.10200
H321        H  0.91955541  0.96415151  0.62193577     0.09200
N322        N  0.76502641  0.04841977  0.70481290    -0.34600
N323        N  0.73645602  0.03837894  0.73778258    -0.26800
C324        C  0.71017829  0.05501943  0.75887013    -0.02000
C325        C  0.72312745  0.07627453  0.73785791     0.06600
C326        C  0.75780090  0.07150987  0.70398514     0.04700
H327        H  0.68411380  0.05188783  0.78768489     0.09800
H328        H  0.77690916  0.08393130  0.68094344     0.08600
N329        N  0.81458136  0.46593874  0.51981222    -0.25800
N330        N  0.77750550  0.45502584  0.53247384    -0.33600
C331        C  0.78410751  0.43188314  0.53049586     0.02600
C332        C  0.82727483  0.42799544  0.51590744     0.08600
C333        C  0.84591363  0.44984320  0.50939326    -0.04500
H334        H  0.75940282  0.41887535  0.53990536     0.09300
H335        H  0.87972076  0.45376850  0.49872893     0.10500
Cu336      Cu  0.71958421  0.47124626  0.55493013     0.44200
Cu337      Cu  0.82062275  0.50222055  0.51973839     0.42000
Cu338      Cu  0.72060552  0.53293136  0.56387150     0.43900
N339        N  0.66604212  0.49014292  0.58181911    -0.33100
N340        N  0.66627337  0.51314098  0.58535049    -0.27400
C341        C  0.62743830  0.52032795  0.60568500    -0.03500
C342        C  0.60193842  0.50080867  0.61534963     0.08700
C343        C  0.62716435  0.48198072  0.59978108     0.02500
H344        H  0.61868903  0.53833239  0.61327304     0.10200
H345        H  0.61820936  0.46372331  0.60180914     0.09200
N346        N  0.77920397  0.54918298  0.54316615    -0.34600
N347        N  0.81554912  0.53840993  0.52709008    -0.26800
C348        C  0.84707167  0.55454798  0.51781098    -0.02000
C349        C  0.82940960  0.57628170  0.52874558     0.06600
C350        C  0.78656439  0.57227880  0.54459610     0.04700
H351        H  0.88024026  0.55071657  0.50436870     0.09800
H352        H  0.76242124  0.58519043  0.55648890     0.08600
C353        C  0.87890824  0.31515236  0.51106402     0.88000
C354        C  0.85526452  0.30347290  0.96374306    -0.52200
C355        C  0.85631071  0.27969514  0.96548371     0.10900
C356        C  0.88192825  0.26974128  0.51388219     0.21900
C357        C  0.85723549  0.30464502  0.56120356    -0.52900
C358        C  0.85818120  0.28084878  0.56244884     0.11000
C359        C  0.92582683  0.30551588  0.51021861    -0.52500
C360        C  0.92785015  0.28175908  0.51159626     0.11600
H361        H  0.83661646  0.31311409  0.93376513     0.16100
H362        H  0.88300737  0.25036785  0.51503651     0.01900
H363        H  0.83952491  0.31501179  0.59073324     0.16400
H364        H  0.95500145  0.31652609  0.50830991     0.16200
C365        C  0.68528782  0.19015887  0.76201705     0.88000
C366        C  0.70927284  0.20148397  0.71440659    -0.52200
C367        C  0.70894945  0.22529088  0.71570817     0.10900
C368        C  0.68350189  0.23557978  0.76392036     0.21900
C369        C  0.70728823  0.20064560  0.81188330    -0.52900
C370        C  0.70700319  0.22444179  0.81262768     0.11000
C371        C  0.63867310  0.20013290  0.76104155    -0.52500
C372        C  0.63722290  0.22387986  0.76196308     0.11600
H373        H  0.72773159  0.19158258  0.68471379     0.16100
H374        H  0.68292950  0.25496154  0.76477734     0.01900
H375        H  0.72480010  0.19024520  0.84153110     0.16400
H376        H  0.60921311  0.18932200  0.75951334     0.16200
C377        C  0.37812770  0.82018417  0.75337844     0.88000
C378        C  0.35625262  0.80938562  0.70372835    -0.52200
C379        C  0.35611225  0.78558613  0.70401466     0.10900
C380        C  0.37906730  0.77475637  0.75344371     0.21900
C381        C  0.35363930  0.80941126  0.80121447    -0.52900
C382        C  0.35356676  0.78560581  0.80098629     0.11000
C383        C  0.42454935  0.80998286  0.75518661    -0.52500
C384        C  0.42553600  0.78622368  0.75519332     0.11600
H385        H  0.33924749  0.81962194  0.67335151     0.16100
H386        H  0.37927343  0.75536918  0.75345157     0.01900
H387        H  0.33522974  0.81966114  0.83032319     0.16400
H388        H  0.45421408  0.82064778  0.75620034     0.16200
C389        C  0.18326148  0.69566303  0.50395038     0.88000
C390        C  0.20487652  0.70657394  0.95426043    -0.52200
C391        C  0.20396850  0.73038999  0.95419714     0.10900
C392        C  0.18028411  0.74107829  0.50334332     0.21900
C393        C  0.20706648  0.70688417  0.55177427    -0.52900
C394        C  0.20612586  0.73068978  0.55114563     0.11000
C395        C  0.13646521  0.70529745  0.50542020    -0.52500
C396        C  0.13434834  0.72900488  0.50516038     0.11600
H397        H  0.22252055  0.69645237  0.92422930     0.16100
H398        H  0.17917933  0.76045661  0.50307523     0.01900
H399        H  0.22584863  0.69695036  0.58110963     0.16400
H400        H  0.10729026  0.69426025  0.50676251     0.16200
N401        N  0.20608128  0.54287529  0.55184087    -0.25800
N402        N  0.23408965  0.55266504  0.58586934    -0.33600
C403        C  0.23282715  0.57590388  0.58009887     0.02600
C404        C  0.20266213  0.58109497  0.54071906     0.08600
C405        C  0.18609210  0.55989576  0.52334197    -0.04500
H406        H  0.25290991  0.58808573  0.60257869     0.09300
H407        H  0.16157802  0.55703403  0.49244350     0.10500
Cu408      Cu  0.27605256  0.53507139  0.63655851     0.44200
Cu409      Cu  0.19684072  0.50680103  0.54714473     0.42000
Cu410      Cu  0.26532783  0.47482404  0.64486062     0.43900
N411        N  0.32455411  0.51461084  0.66980936    -0.33100
N412        N  0.32097613  0.49170525  0.67240650    -0.27400
C413        C  0.36093301  0.48250365  0.68267805    -0.03500
C414        C  0.39078600  0.50063663  0.68699751     0.08700
C415        C  0.36670940  0.52071523  0.67857173     0.02500
H416        H  0.36853265  0.46407573  0.68067115     0.10200
H417        H  0.37973305  0.53810065  0.67249333     0.09200
N418        N  0.21762326  0.45989062  0.59688546    -0.34600
N419        N  0.19446337  0.47073765  0.55929778    -0.26800
C420        C  0.17244056  0.45459411  0.53030116    -0.02000
C421        C  0.18229756  0.43284959  0.55128032     0.06600
C422        C  0.21080274  0.43684578  0.59316882     0.04700
H423        H  0.15263535  0.45833062  0.49518102     0.09800
H424        H  0.22793415  0.42385180  0.61682198     0.08600
C425        C  0.18006695  0.31933131  0.50057159     0.88000
C426        C  0.20598413  0.30864032  0.54751073    -0.52200
C427        C  0.20852273  0.28486569  0.54553830     0.10900
C428        C  0.18390147  0.27395739  0.49744159     0.21900
C429        C  0.20282015  0.30990861  0.95001792    -0.52900
C430        C  0.20541086  0.28612567  0.94867777     0.11000
C431        C  0.13489175  0.30769286  0.50201157    -0.52500
C432        C  0.13637387  0.28398911  0.50045495     0.11600
H433        H  0.22320195  0.31900265  0.57747034     0.16100
H434        H  0.18569830  0.25460148  0.49606099     0.01900
H435        H  0.21849527  0.32103822  0.92025572     0.16400
H436        H  0.10413475  0.31741593  0.50432188     0.16200
C437        C  0.37377699  0.19401264  0.75167718     0.88000
C438        C  0.35073800  0.20642335  0.79840843    -0.52200
C439        C  0.35381011  0.23013661  0.79619729     0.10900
C440        C  0.38073480  0.23927200  0.74797851     0.21900
C441        C  0.35343689  0.20480114  0.70102050    -0.52900
C442        C  0.35643245  0.22855867  0.69933074     0.11000
C443        C  0.42145968  0.20251024  0.75292384    -0.52500
C444        C  0.42558016  0.22617257  0.75110518     0.11600
H445        H  0.33093724  0.19735180  0.82824744     0.16100
H446        H  0.38350193  0.25859326  0.74646428     0.01900
H447        H  0.33499471  0.19474745  0.67157802     0.16400
H448        H  0.44962553  0.19081411  0.75540726     0.16200
N449        N  0.31330359  0.04305786  0.73956541    -0.25800
N450        N  0.27939141  0.05342447  0.71601273    -0.33600
C451        C  0.28358436  0.07662427  0.72095946     0.02600
C452        C  0.32187705  0.08111747  0.74871461     0.08600
C453        C  0.34016841  0.05957915  0.76000437    -0.04500
H454        H  0.26149058  0.08928435  0.70317881     0.09300
H455        H  0.37143357  0.05617487  0.77946527     0.10500
Cu456      Cu  0.23147353  0.03684617  0.67123856     0.44200
Cu457      Cu  0.32329163  0.00710633  0.73829523     0.42000
Cu458      Cu  0.24582565  0.97653253  0.65069124     0.43900
N459        N  0.19054531  0.01767592  0.62193891    -0.33100
N460        N  0.19620024  0.99511533  0.61386878    -0.27400
C461        C  0.16264309  0.98690489  0.58408393    -0.03500
C462        C  0.13491049  0.00531685  0.57258885     0.08700
C463        C  0.15325582  0.02453714  0.59740956     0.02500
H464        H  0.15714614  0.96865933  0.57511280     0.10200
H465        H  0.13895805  0.04177521  0.60081683     0.09200
N466        N  0.29524921  0.96046558  0.69375572    -0.34600
N467        N  0.32357718  0.97117280  0.72586163    -0.26800
C468        C  0.35062949  0.95507667  0.74769100    -0.02000
C469        C  0.33836090  0.93346929  0.72805968     0.06600
C470        C  0.30331530  0.93746337  0.69425277     0.04700
H471        H  0.37687645  0.95882471  0.77585862     0.09800
H472        H  0.28470763  0.92460186  0.67190009     0.08600
C473        C  0.36924522  0.16855268  0.75421640    -0.17000
C474        C  0.36326936  0.14779266  0.75665016     0.07100
C475        C  0.35306025  0.12379361  0.75816934     0.08900
C476        C  0.34092652  0.10379320  0.75641699    -0.17800
C477        C  0.23519738  0.27433747  0.91228186    -0.17000
C478        C  0.26338260  0.26534586  0.88486273     0.07100
C479        C  0.29755258  0.25476721  0.85458511     0.08900
C480        C  0.32531915  0.24462639  0.82871396    -0.17800
C481        C  0.23921980  0.27205183  0.57901469    -0.17000
C482        C  0.26756462  0.26252290  0.60531194     0.07100
C483        C  0.30146774  0.25177548  0.63590632     0.08900
C484        C  0.32873203  0.24198191  0.66335153    -0.17800
C485        C  0.17293703  0.41022926  0.52933598    -0.17000
C486        C  0.17118419  0.38997846  0.51652296     0.07100
C487        C  0.17377580  0.36573906  0.50715151     0.08900
C488        C  0.17722637  0.34487504  0.50272353    -0.17800
C489        C  0.19212748  0.60419509  0.52257415    -0.17000
C490        C  0.18753617  0.62465550  0.51301899     0.07100
C491        C  0.18544185  0.64909369  0.50691151     0.08900
C492        C  0.18469601  0.67008773  0.50453386    -0.17800
C493        C  0.37713949  0.84575841  0.75314257    -0.17000
C494        C  0.37407124  0.86669928  0.75150687     0.07100
C495        C  0.36678994  0.89091569  0.74721227     0.08900
C496        C  0.35641529  0.91098863  0.74057430    -0.17800
C497        C  0.23584200  0.74408540  0.58461983    -0.17000
C498        C  0.26430186  0.75346706  0.61095048     0.07100
C499        C  0.29891624  0.76354014  0.64147224     0.08900
C500        C  0.32707417  0.77268044  0.66871022    -0.17800
C501        C  0.23279100  0.74356169  0.91909532    -0.17000
C502        C  0.26074569  0.75298087  0.89201522     0.07100
C503        C  0.29513643  0.76327966  0.86146641     0.08900
C504        C  0.32354008  0.77260652  0.83491324    -0.17800
C505        C  0.46923320  0.23674142  0.75308795    -0.17000
C506        C  0.50859764  0.24063142  0.75545354     0.07100
C507        C  0.55561955  0.24028466  0.75834675     0.08900
C508        C  0.59470863  0.23566864  0.76041340    -0.17800
C509        C  0.97049185  0.27014136  0.50982333    -0.17000
C510        C  0.00957184  0.26559356  0.50754575     0.07100
C511        C  0.05653516  0.26575617  0.50455694     0.10900
C512        C  0.09535629  0.27087296  0.50226381    -0.17800
C513        C  0.73880807  0.23872607  0.68240198    -0.17000
C514        C  0.76715358  0.24829611  0.65617901     0.07100
C515        C  0.80151049  0.25866922  0.62564606     0.08900
C516        C  0.82941739  0.26797227  0.59824741    -0.17800
C517        C  0.73637975  0.23715399  0.84784535    -0.17000
C518        C  0.76466681  0.24622590  0.87497255     0.07100
C519        C  0.79913525  0.25637936  0.90552649     0.08900
C520        C  0.82723039  0.26596120  0.93200222    -0.17800
C521        C  0.43778962  0.49888727  0.68154363    -0.17000
C522        C  0.47660909  0.49863603  0.67122135     0.07100
C523        C  0.52099296  0.49928440  0.65431407     0.08900
C524        C  0.55817292  0.50009451  0.63731015    -0.17800
C525        C  0.87636559  0.34073448  0.50942382    -0.17000
C526        C  0.87107523  0.36158986  0.50870881     0.07100
C527        C  0.86077824  0.38562156  0.50917225     0.08900
C528        C  0.84796894  0.40552381  0.51115126    -0.17800
C529        C  0.09031372  0.00350456  0.55416940    -0.17000
C530        C  0.05111849  0.00206831  0.54761427     0.07100
C531        C  0.00490482  0.00074049  0.55125681     0.08900
C532        C  0.96656948  0.00000790  0.56351737    -0.17800
C533        C  0.68670567  0.16457639  0.76099503    -0.17000
C534        C  0.68977981  0.14362345  0.75944643     0.07100
C535        C  0.69662612  0.11933467  0.75569478     0.08900
C536        C  0.70626054  0.09911144  0.74963116    -0.17800
C537        C  0.09137882  0.74025525  0.50700966    -0.17000
C538        C  0.05184245  0.74359099  0.50886580     0.07100
C539        C  0.00494432  0.74180366  0.51101484     0.08900
C540        C  0.96642170  0.73600212  0.51260952    -0.17800
C541        C  0.87628190  0.66384158  0.01944139    -0.17000
C542        C  0.87201920  0.64291550  0.02100821     0.07100
C543        C  0.86261352  0.61876672  0.52265252     0.08900
C544        C  0.85017327  0.59878629  0.52470708    -0.17800
C545        C  0.59319756  0.77275335  0.76025972    -0.17000
C546        C  0.55383191  0.76884564  0.75861454     0.07100
C547        C  0.50679644  0.76935836  0.75726864     0.08900
C548        C  0.46779336  0.77419975  0.75631171    -0.17800
C549        C  0.69156279  0.84123153  0.77689539    -0.17000
C550        C  0.69703069  0.86198605  0.78111552     0.07100
C551        C  0.70667104  0.88605608  0.78341007     0.08900
C552        C  0.71841665  0.90612873  0.78141371    -0.17800
C553        C  0.82650495  0.73469711  0.92559388    -0.17000
C554        C  0.79834587  0.74352844  0.89793327     0.07100
C555        C  0.76375062  0.75377112  0.86787037     0.08900
C556        C  0.73552618  0.76383568  0.84264449    -0.17800
C557        C  0.73541490  0.77017498  0.67761186    -0.17000
C558        C  0.76227802  0.76050523  0.64934473     0.07100
C559        C  0.79538190  0.74933535  0.61823364     0.08900
C560        C  0.82289016  0.73911086  0.59198789    -0.17800
loop_ 
_geom_bond_atom_site_label_1 
_geom_bond_atom_site_label_2 
_geom_bond_distance 
_geom_bond_site_symmetry_2 
_ccdc_geom_bond_type 
C1            C2   1.530       .  S
C1            C7   1.525       .  S
C1            C5   1.535       .  S
C1          C269   1.468       .  S
C2            H9   1.087       .  S
C2            C3   1.363       .  D
C3            C4   1.543       .  S
C3          C276   1.445       .  S
C4            C8   1.554       .  S
C4            C6   1.543       .  S
C4           H10   1.111       .  S
C5           H11   1.087       .  S
C5            C6   1.365       .  D
C6          C277   1.449       .  S
C7           H12   1.087       .  S
C7            C8   1.363       .  D
C8          C265   1.455       .  S
C13          C19   1.527       .  S
C13          C17   1.533       .  S
C13         C294   1.535       .  S
C13         C261   1.470       .  S
C14         C293   1.535       .  S
C14          H21   1.087       .  S
C14          C15   1.365       .  D
C15         C296   1.543       .  S
C15         C280   1.449       .  S
C16          C20   1.552       .  S
C16          C18   1.542       .  S
C16         C295   1.543       .  S
C16          H22   1.111       .  S
C17          H23   1.087       .  S
C17          C18   1.363       .  D
C18         C273   1.445       .  S
C19          H24   1.087       .  S
C19          C20   1.364       .  D
C20         C540   1.455       .  S
N25          N26   1.323       .  A
N25          C29   1.349       .  A
N25         Cu33   2.086   1_565  S
N26          C27   1.341       .  A
N26         Cu32   2.059       .  S
C27          C28   1.375       .  A
C27          H30   1.082       .  S
C28          C29   1.383       .  A
C28         C272   1.436       .  S
C29          H31   1.082       .  S
Cu32         N35   2.059       .  S
Cu33         N43   2.087       .  S
Cu34         N36   2.062       .  S
Cu34         N42   2.063       .  S
N35          N36   1.320   1_565  A
N35          C39   1.343       .  A
N36          C37   1.344       .  A
C37          C38   1.380   1_545  A
C37          H40   1.082       .  S
C38          C39   1.379       .  A
C38         C252   1.431   1_565  S
C39          H41   1.082       .  S
N42          N43   1.324       .  A
N42          C46   1.341       .  A
N43          C44   1.349       .  A
C44          C45   1.382       .  A
C44          H47   1.082       .  S
C45          C46   1.375       .  A
C45         C256   1.435       .  S
C46          H48   1.082       .  S
N49          N50   1.324       .  A
N49          C53   1.349       .  A
N49         Cu57   2.087       .  S
N50          C51   1.342       .  A
N50         Cu56   2.063       .  S
C51          C52   1.376       .  A
C51          H54   1.082       .  S
C52          C53   1.383       .  A
C52         C248   1.437       .  S
C53          H55   1.082   1_554  S
Cu56         N59   2.062       .  S
Cu57         N67   2.088       .  S
Cu58         N60   2.069       .  S
Cu58         N66   2.070       .  S
N59          N60   1.321       .  A
N59          C63   1.344       .  A
N60          C61   1.346       .  A
C61          C62   1.380       .  A
C61          H64   1.082       .  S
C62          C63   1.378       .  A
C62         C244   1.435       .  S
C63          H65   1.082       .  S
N66          N67   1.325       .  A
N66          C70   1.343       .  A
N67          C68   1.349       .  A
C68          C69   1.383       .  A
C68          H71   1.082       .  S
C69          C70   1.376       .  A
C69         C264   1.438       .  S
C70          H72   1.082       .  S
C73          C79   1.525       .  S
C73          C77   1.533       .  S
C73         C354   1.533   1_554  S
C73         C245   1.469       .  S
C74         C353   1.533       .  S
C74          H81   1.087       .  S
C74          C75   1.364       .  D
C75         C356   1.543       .  S
C75         C240   1.446       .  S
C76          C80   1.553       .  S
C76          C78   1.544       .  S
C76         C355   1.543   1_554  S
C76          H82   1.111       .  S
C77          H83   1.087       .  S
C77          C78   1.364       .  D
C78         C236   1.448       .  S
C79          H84   1.087       .  S
C79          C80   1.363       .  D
C80         C229   1.454       .  S
C85          C86   1.534       .  S
C85          C91   1.524       .  S
C85          C89   1.532       .  S
C85         C253   1.467       .  S
C86          H93   1.087       .  S
C86          C87   1.365       .  D
C87          C88   1.544       .  S
C87         C233   1.449       .  S
C88          C92   1.555       .  S
C88          C90   1.544       .  S
C88          H94   1.111       .  S
C89          H95   1.087       .  S
C89          C90   1.364       .  D
C90         C237   1.446       .  S
C91          H96   1.087       .  S
C91          C92   1.362       .  D
C92         C228   1.455       .  S
C97          C98   1.533       .  S
C97         C103   1.524       .  S
C97         C101   1.533       .  S
C97         C213   1.466       .  S
C98         H105   1.087       .  S
C98          C99   1.364       .  D
C99         C100   1.544       .  S
C99         C220   1.447       .  S
C100        C104   1.554       .  S
C100        C102   1.544       .  S
C100        H106   1.111       .  S
C101        H107   1.087       .  S
C101        C102   1.364       .  D
C102        C224   1.448       .  S
C103        H108   1.087       .  S
C103        C104   1.362       .  D
C104        C268   1.454       .  S
C109        C115   1.522       .  S
C109        C113   1.533       .  S
C109        C390   1.532   1_554  S
C109        C212   1.466       .  S
C110        C389   1.532       .  S
C110        H117   1.087       .  S
C110        C111   1.365       .  D
C111        C392   1.545       .  S
C111        C221   1.448       .  S
C112        C116   1.555       .  S
C112        C114   1.544       .  S
C112        C391   1.545   1_554  S
C112        H118   1.111       .  S
C113        H119   1.087       .  S
C113        C114   1.365       .  D
C114        C217   1.447       .  S
C115        H120   1.087       .  S
C115        C116   1.360       .  D
C116        C257   1.454       .  S
N121        N122   1.324       .  A
N121        C125   1.350       .  A
N121       Cu129   2.089       .  S
N122        C123   1.340       .  A
N122       Cu128   2.056       .  S
C123        C124   1.373       .  A
C123        H126   1.082       .  S
C124        C125   1.384       .  A
C124        C209   1.435       .  S
C125        H127   1.082   1_554  S
Cu128       N131   2.054       .  S
Cu129       N139   2.090       .  S
Cu130       N132   2.061       .  S
Cu130       N138   2.061       .  S
N131        N132   1.319       .  A
N131        C135   1.342       .  A
N132        C133   1.345       .  A
C133        C134   1.382       .  A
C133        H136   1.082       .  S
C134        C135   1.379       .  A
C134        C241   1.434       .  S
C135        H137   1.082       .  S
N138        N139   1.325       .  A
N138        C142   1.340       .  A
N139        C140   1.350       .  A
C140        C141   1.384       .  A
C140        H143   1.082   1_554  S
C141        C142   1.373       .  A
C141        C205   1.435       .  S
C142        H144   1.082       .  S
C145        C146   1.535       .  S
C145        C151   1.523       .  S
C145        C429   1.533   1_554  S
C145        C208   1.467       .  S
C146        H153   1.087       .  S
C146        C147   1.366       .  D
C147        C148   1.543   1_554  S
C147        C201   1.449       .  S
C148        C152   1.553   1_556  S
C148        C430   1.544       .  S
C148        H154   1.111       .  S
C149        C425   1.533       .  S
C149        H155   1.087       .  S
C149        C150   1.366       .  D
C150        C428   1.544       .  S
C150        C197   1.446       .  S
C151        H156   1.087       .  S
C151        C152   1.360       .  D
C152        C232   1.453       .  S
C157        C158   1.532       .  S
C157        C163   1.525       .  S
C157        C161   1.534       .  S
C157        C193   1.467       .  S
C158        H165   1.087       .  S
C158        C159   1.363       .  D
C159        C160   1.543       .  S
C159        C200   1.446       .  S
C160        C164   1.554       .  S
C160        C162   1.545       .  S
C160        H166   1.111       .  S
C161        H167   1.087       .  S
C161        C162   1.365       .  D
C162        C204   1.449       .  S
C163        H168   1.087       .  S
C163        C164   1.363       .  D
C164        C225   1.455       .  S
N169        N170   1.324       .  A
N169        C173   1.348       .  A
N169       Cu177   2.083       .  S
N170        C171   1.341       .  A
N170       Cu176   2.062       .  S
C171        C172   1.375       .  A
C171        H174   1.082       .  S
C172        C173   1.382       .  A
C172        C196   1.435       .  S
C173        H175   1.082       .  S
Cu176       N179   2.062       .  S
Cu177       N187   2.082   1_545  S
Cu178       N180   2.058       .  S
Cu178       N186   2.059       .  S
N179        N180   1.320   1_545  A
N179        C183   1.343       .  A
N180        C181   1.343       .  A
C181        C182   1.379   1_565  A
C181        H184   1.082       .  S
C182        C183   1.380       .  A
C182        C249   1.431       .  S
C183        H185   1.082       .  S
N186        N187   1.324       .  A
N186        C190   1.341       .  A
N187        C188   1.348       .  A
C188        C189   1.382       .  A
C188        H191   1.082       .  S
C189        C190   1.374       .  A
C189        C216   1.434       .  S
C190        H192   1.082       .  S
C193        C194   1.205       .  T
C194        C195   1.410       .  S
C195        C196   1.204       .  T
C197        C198   1.209       .  T
C198        C199   1.417       .  S
C199        C200   1.209       .  T
C201        C202   1.210       .  T
C202        C203   1.419       .  S
C203        C204   1.210       .  T
C205        C206   1.205       .  T
C206        C207   1.411       .  S
C207        C208   1.205       .  T
C209        C210   1.205       .  T
C210        C211   1.410       .  S
C211        C212   1.205       .  T
C213        C214   1.204       .  T
C214        C215   1.409       .  S
C215        C216   1.204       .  T
C217        C218   1.209       .  T
C218        C219   1.418       .  S
C219        C220   1.209       .  T
C221        C222   1.210       .  T
C222        C223   1.418       .  S
C223        C224   1.210       .  T
C225        C226   1.215       .  T
C226        C227   1.427       .  S
C227        C228   1.215       .  T
C229        C230   1.214   1_655  T
C230        C231   1.425       .  S
C231        C232   1.214       .  T
C233        C234   1.210       .  T
C234        C235   1.419       .  S
C235        C236   1.210       .  T
C237        C238   1.209       .  T
C238        C239   1.417       .  S
C239        C240   1.208       .  T
C241        C242   1.204       .  T
C242        C243   1.410       .  S
C243        C244   1.204       .  T
C245        C246   1.206       .  T
C246        C247   1.412       .  S
C247        C248   1.206       .  T
C249        C250   1.202       .  T
C250        C251   1.405       .  S
C251        C252   1.202   1_455  T
C253        C254   1.205       .  T
C254        C255   1.410       .  S
C255        C256   1.205       .  T
C257        C258   1.214       .  T
C258        C259   1.426       .  S
C259        C260   1.214   1_455  T
C260        C300   1.455       .  S
C261        C262   1.207       .  T
C262        C543   1.413       .  S
C263        C264   1.207       .  T
C263        C542   1.413       .  S
C265        C266   1.214       .  T
C266        C267   1.426       .  S
C267        C268   1.214       .  T
C269        C270   1.205       .  T
C270        C271   1.411       .  S
C271        C272   1.205       .  T
C273        C274   1.208       .  T
C274        C275   1.416       .  S
C275        C276   1.208       .  T
C277        C278   1.210       .  T
C278        C279   1.420       .  S
C279        C280   1.210       .  T
C281        C282   1.530       .  S
C281        C287   1.525       .  S
C281        C285   1.535       .  S
C281        C549   1.468       .  S
C282        H289   1.087       .  S
C282        C283   1.363       .  D
C283        C284   1.543       .  S
C283        C556   1.445       .  S
C284        C288   1.554       .  S
C284        C286   1.543       .  S
C284        H290   1.111       .  S
C285        H291   1.087       .  S
C285        C286   1.365       .  D
C286        C557   1.449       .  S
C287        H292   1.087       .  S
C287        C288   1.363       .  D
C288        C545   1.455       .  S
C293        C299   1.527       .  S
C293        C297   1.533   1_554  S
C293        C541   1.470       .  S
C294        H301   1.087       .  S
C294        C295   1.365       .  D
C295        C560   1.449       .  S
C296        C300   1.552       .  S
C296        C298   1.542   1_554  S
C296        H302   1.111       .  S
C297        H303   1.087       .  S
C297        C298   1.363       .  D
C298        C553   1.445       .  S
C299        H304   1.087       .  S
C299        C300   1.364       .  D
N305        N306   1.323       .  A
N305        C309   1.349       .  A
N305       Cu313   2.086   1_565  S
N306        C307   1.341       .  A
N306       Cu312   2.059       .  S
C307        C308   1.375       .  A
C307        H310   1.082       .  S
C308        C309   1.383       .  A
C308        C552   1.436       .  S
C309        H311   1.082       .  S
Cu312       N315   2.059       .  S
Cu313       N323   2.087       .  S
Cu314       N316   2.062       .  S
Cu314       N322   2.063       .  S
N315        N316   1.320   1_565  A
N315        C319   1.343       .  A
N316        C317   1.344       .  A
C317        C318   1.380   1_545  A
C317        H320   1.082       .  S
C318        C319   1.379       .  A
C318        C532   1.431   1_565  S
C319        H321   1.082       .  S
N322        N323   1.324       .  A
N322        C326   1.341       .  A
N323        C324   1.349       .  A
C324        C325   1.382       .  A
C324        H327   1.082       .  S
C325        C326   1.375       .  A
C325        C536   1.435       .  S
C326        H328   1.082       .  S
N329        N330   1.324       .  A
N329        C333   1.349       .  A
N329       Cu337   2.087       .  S
N330        C331   1.342       .  A
N330       Cu336   2.063       .  S
C331        C332   1.376       .  A
C331        H334   1.082       .  S
C332        C333   1.383       .  A
C332        C528   1.437       .  S
C333        H335   1.082       .  S
Cu336       N339   2.062       .  S
Cu337       N347   2.088       .  S
Cu338       N340   2.069       .  S
Cu338       N346   2.070       .  S
N339        N340   1.321       .  A
N339        C343   1.344       .  A
N340        C341   1.346       .  A
C341        C342   1.380       .  A
C341        H344   1.082       .  S
C342        C343   1.378       .  A
C342        C524   1.435       .  S
C343        H345   1.082       .  S
N346        N347   1.325       .  A
N346        C350   1.343       .  A
N347        C348   1.349       .  A
C348        C349   1.383       .  A
C348        H351   1.082       .  S
C349        C350   1.376       .  A
C349        C544   1.438       .  S
C350        H352   1.082       .  S
C353        C359   1.525       .  S
C353        C357   1.533       .  S
C353        C525   1.469       .  S
C354        H361   1.087       .  S
C354        C355   1.364       .  D
C355        C520   1.446       .  S
C356        C360   1.553       .  S
C356        C358   1.544       .  S
C356        H362   1.111       .  S
C357        H363   1.087       .  S
C357        C358   1.364       .  D
C358        C516   1.448       .  S
C359        H364   1.087       .  S
C359        C360   1.363       .  D
C360        C509   1.454       .  S
C365        C366   1.534       .  S
C365        C371   1.524       .  S
C365        C369   1.532       .  S
C365        C533   1.467       .  S
C366        H373   1.087       .  S
C366        C367   1.365       .  D
C367        C368   1.544       .  S
C367        C513   1.449       .  S
C368        C372   1.555       .  S
C368        C370   1.544       .  S
C368        H374   1.111       .  S
C369        H375   1.087       .  S
C369        C370   1.364       .  D
C370        C517   1.446       .  S
C371        H376   1.087       .  S
C371        C372   1.362       .  D
C372        C508   1.455       .  S
C377        C378   1.533       .  S
C377        C383   1.524       .  S
C377        C381   1.533       .  S
C377        C493   1.466       .  S
C378        H385   1.087       .  S
C378        C379   1.364       .  D
C379        C380   1.544       .  S
C379        C500   1.447       .  S
C380        C384   1.554       .  S
C380        C382   1.544       .  S
C380        H386   1.111       .  S
C381        H387   1.087       .  S
C381        C382   1.364       .  D
C382        C504   1.448       .  S
C383        H388   1.087       .  S
C383        C384   1.362       .  D
C384        C548   1.454       .  S
C389        C395   1.522       .  S
C389        C393   1.533       .  S
C389        C492   1.466       .  S
C390        H397   1.087       .  S
C390        C391   1.365       .  D
C391        C501   1.448       .  S
C392        C396   1.555       .  S
C392        C394   1.544       .  S
C392        H398   1.111       .  S
C393        H399   1.087       .  S
C393        C394   1.365       .  D
C394        C497   1.447       .  S
C395        H400   1.087       .  S
C395        C396   1.360       .  D
C396        C537   1.454       .  S
N401        N402   1.324       .  A
N401        C405   1.350       .  A
N401       Cu409   2.089       .  S
N402        C403   1.340       .  A
N402       Cu408   2.056       .  S
C403        C404   1.373       .  A
C403        H406   1.082       .  S
C404        C405   1.384       .  A
C404        C489   1.435       .  S
C405        H407   1.082       .  S
Cu408       N411   2.054       .  S
Cu409       N419   2.090       .  S
Cu410       N412   2.061       .  S
Cu410       N418   2.061       .  S
N411        N412   1.319       .  A
N411        C415   1.342       .  A
N412        C413   1.345       .  A
C413        C414   1.382       .  A
C413        H416   1.082       .  S
C414        C415   1.379       .  A
C414        C521   1.434       .  S
C415        H417   1.082       .  S
N418        N419   1.325       .  A
N418        C422   1.340       .  A
N419        C420   1.350       .  A
C420        C421   1.384       .  A
C420        H423   1.082       .  S
C421        C422   1.373       .  A
C421        C485   1.435       .  S
C422        H424   1.082       .  S
C425        C426   1.535       .  S
C425        C431   1.523       .  S
C425        C488   1.467       .  S
C426        H433   1.087       .  S
C426        C427   1.366       .  D
C427        C428   1.543       .  S
C427        C481   1.449       .  S
C428        C432   1.553       .  S
C428        H434   1.111       .  S
C429        H435   1.087       .  S
C429        C430   1.366       .  D
C430        C477   1.446       .  S
C431        H436   1.087       .  S
C431        C432   1.360       .  D
C432        C512   1.453       .  S
C437        C438   1.532       .  S
C437        C443   1.525       .  S
C437        C441   1.534       .  S
C437        C473   1.467       .  S
C438        H445   1.087       .  S
C438        C439   1.363       .  D
C439        C440   1.543       .  S
C439        C480   1.446       .  S
C440        C444   1.554       .  S
C440        C442   1.545       .  S
C440        H446   1.111       .  S
C441        H447   1.087       .  S
C441        C442   1.365       .  D
C442        C484   1.449       .  S
C443        H448   1.087       .  S
C443        C444   1.363       .  D
C444        C505   1.455       .  S
N449        N450   1.324       .  A
N449        C453   1.348       .  A
N449       Cu457   2.083       .  S
N450        C451   1.341       .  A
N450       Cu456   2.062       .  S
C451        C452   1.375       .  A
C451        H454   1.082       .  S
C452        C453   1.382       .  A
C452        C476   1.435       .  S
C453        H455   1.082       .  S
Cu456       N459   2.062       .  S
Cu457       N467   2.082   1_545  S
Cu458       N460   2.058       .  S
Cu458       N466   2.059       .  S
N459        N460   1.320   1_545  A
N459        C463   1.343       .  A
N460        C461   1.343       .  A
C461        C462   1.379   1_565  A
C461        H464   1.082       .  S
C462        C463   1.380       .  A
C462        C529   1.431       .  S
C463        H465   1.082       .  S
N466        N467   1.324       .  A
N466        C470   1.341       .  A
N467        C468   1.348       .  A
C468        C469   1.382       .  A
C468        H471   1.082       .  S
C469        C470   1.374       .  A
C469        C496   1.434       .  S
C470        H472   1.082       .  S
C473        C474   1.205       .  T
C474        C475   1.410       .  S
C475        C476   1.204       .  T
C477        C478   1.209       .  T
C478        C479   1.417       .  S
C479        C480   1.209       .  T
C481        C482   1.210       .  T
C482        C483   1.419       .  S
C483        C484   1.210       .  T
C485        C486   1.205       .  T
C486        C487   1.411       .  S
C487        C488   1.205       .  T
C489        C490   1.205       .  T
C490        C491   1.410       .  S
C491        C492   1.205       .  T
C493        C494   1.204       .  T
C494        C495   1.409       .  S
C495        C496   1.204       .  T
C497        C498   1.209       .  T
C498        C499   1.418       .  S
C499        C500   1.209       .  T
C501        C502   1.210       .  T
C502        C503   1.418       .  S
C503        C504   1.210       .  T
C505        C506   1.215       .  T
C506        C507   1.427       .  S
C507        C508   1.215       .  T
C509        C510   1.214   1_655  T
C510        C511   1.425       .  S
C511        C512   1.214       .  T
C513        C514   1.210       .  T
C514        C515   1.419       .  S
C515        C516   1.210       .  T
C517        C518   1.209       .  T
C518        C519   1.417       .  S
C519        C520   1.208       .  T
C521        C522   1.204       .  T
C522        C523   1.410       .  S
C523        C524   1.204       .  T
C525        C526   1.206       .  T
C526        C527   1.412       .  S
C527        C528   1.206       .  T
C529        C530   1.202       .  T
C530        C531   1.405       .  S
C531        C532   1.202   1_455  T
C533        C534   1.205       .  T
C534        C535   1.410       .  S
C535        C536   1.205       .  T
C537        C538   1.214       .  T
C538        C539   1.426       .  S
C539        C540   1.214   1_455  T
C541        C542   1.207       .  T
C543        C544   1.207       .  T
C545        C546   1.214       .  T
C546        C547   1.426       .  S
C547        C548   1.214       .  T
C549        C550   1.205       .  T
C550        C551   1.411       .  S
C551        C552   1.205       .  T
C553        C554   1.208       .  T
C554        C555   1.415       .  S
C555        C556   1.208       .  T
C557        C558   1.210       .  T
C558        C559   1.420       .  S
C559        C560   1.210       .  T
