geometry optimzed in LAMMPS
_audit_creation_date              2020-12-01 
_audit_creation_method            'lammps2cif' 
_symmetry_space_group_name_H-M    'P1' 
_symmetry_Int_Tables_number       1 
_symmetry_cell_setting            triclinic 
loop_ 
_symmetry_equiv_pos_as_xyz 
  x,y,z 
_cell_length_a                    40.23363393 
_cell_length_b                    40.025285392272274 
_cell_length_c                    42.947255190837566 
_cell_angle_alpha                 89.97179090496417 
_cell_angle_beta                  90.29185621348665 
_cell_angle_gamma                 90.02477639443401 
loop_ 
_atom_site_label 
_atom_site_type_symbol 
_atom_site_fract_x 
_atom_site_fract_y 
_atom_site_fract_z 
_atom_site_charge 
N1          N  0.20108322  0.31019907  0.21871763    -0.05900
N2          N  0.19264223  0.33139781  0.19642456    -0.58000
N3          N  0.18183361  0.28369064  0.29017534    -0.05500
N4          N  0.15857707  0.28734223  0.31150724    -0.60100
N5          N  0.20235514  0.30931127  0.29067223    -0.05100
N6          N  0.19364830  0.33075412  0.31249851    -0.58000
N7          N  0.18089606  0.28433077  0.21872430    -0.04800
N8          N  0.15797072  0.28767380  0.19680788    -0.60500
C9          C  0.16583298  0.31690286  0.18286192     0.96300
C10         C  0.16649281  0.31658381  0.32544144     0.96100
N11         N  0.21761104  0.18476501  0.28922094    -0.06000
N12         N  0.21282024  0.15969673  0.30873669    -0.58600
N13         N  0.19102217  0.20571257  0.21804547    -0.04200
N14         N  0.16931144  0.19655884  0.19648238    -0.59800
N15         N  0.21665909  0.18528930  0.21823025    -0.06100
N16         N  0.21282542  0.16176731  0.19695260    -0.58800
N17         N  0.19189031  0.20514033  0.28948843    -0.03800
N18         N  0.16942398  0.19459790  0.30950914    -0.59900
Mn19       Mn  0.18554033  0.24465785  0.25413024     1.18400
C20         C  0.18289531  0.16641419  0.32148990     0.98400
C21         C  0.18339797  0.16929441  0.18337139     0.99100
N22         N  0.28099444  0.31982072  0.28917975    -0.06100
N23         N  0.28634835  0.34369744  0.30986618    -0.62400
N24         N  0.30340455  0.30018173  0.21685605    -0.04900
N25         N  0.32364087  0.30958862  0.19440679    -0.63100
N26         N  0.27791986  0.32065996  0.21843182    -0.05600
N27         N  0.28033041  0.34453737  0.19739933    -0.62700
N28         N  0.30655157  0.29929377  0.28829718    -0.04500
N29         N  0.32948954  0.30844793  0.30864466    -0.63400
Mn30       Mn  0.24038532  0.31583462  0.25450044     1.10700
C31         C  0.31645731  0.33597127  0.32207651     0.99600
C32         C  0.30873143  0.33710848  0.18242164     0.99700
N33         N  0.29390172  0.19572535  0.21659081    -0.05600
N34         N  0.30194615  0.17434914  0.19446441    -0.61000
N35         N  0.31733683  0.22105114  0.28721746    -0.04900
N36         N  0.34263733  0.21708995  0.30659674    -0.57700
N37         N  0.29711687  0.19519921  0.28853551    -0.06200
N38         N  0.30827738  0.17325669  0.30918647    -0.60500
N39         N  0.31394795  0.22168906  0.21615277    -0.05200
N40         N  0.33639006  0.21827166  0.19405933    -0.57700
Mn41       Mn  0.25647301  0.18943036  0.25341966     1.20200
Mn42       Mn  0.31104183  0.26066582  0.25207224     1.10100
Cl43       Cl  0.24834358  0.25261278  0.25391084    -0.85700
C44         C  0.32835121  0.18886298  0.18052567     0.96600
C45         C  0.33655304  0.18743638  0.32044760     0.96400
C46         C  0.38059542  0.36878432  0.38187229     0.86800
C47         C  0.40570556  0.35022514  0.40303932    -0.53500
C48         C  0.42409293  0.37101383  0.42153016     0.09700
C49         C  0.41559847  0.40832935  0.41697764     0.20600
C50         C  0.35947690  0.39003899  0.40426746    -0.54200
C51         C  0.37777866  0.41114839  0.42231544     0.09800
C52         C  0.40175522  0.39407350  0.36342490    -0.53700
C53         C  0.42022035  0.41471819  0.38191988     0.10300
H54         H  0.40836806  0.32323940  0.40367713     0.14900
H55         H  0.43053567  0.42529274  0.43201723     0.00600
H56         H  0.33254257  0.38892539  0.40537681     0.15200
H57         H  0.40245369  0.39516858  0.33817410     0.15000
C58         C  0.37598559  0.12599138  0.38033953     0.86800
C59         C  0.39987731  0.10425139  0.36088196    -0.53500
C60         C  0.42066589  0.08490479  0.37851093     0.09700
C61         C  0.41562491  0.08914642  0.41384441     0.20600
C62         C  0.35781730  0.10107729  0.40166206    -0.57900
C63         C  0.37845184  0.08173141  0.41912921     0.09800
C64         C  0.39877331  0.14636873  0.40254736    -0.53700
C65         C  0.41980367  0.12692534  0.42004582     0.10300
H66         H  0.39958303  0.10342659  0.33561503     0.14900
H67         H  0.43240769  0.07326025  0.42819053     0.00600
H68         H  0.33094452  0.09921423  0.40324507     0.15200
H69         H  0.39847405  0.17343457  0.40405363     0.15000
C70         C  0.13375287  0.37849197  0.38686895     0.86800
C71         C  0.15255060  0.40338330  0.40800539    -0.53500
C72         C  0.13222532  0.42187627  0.42651516     0.09700
C73         C  0.09494790  0.41411730  0.42173422     0.20600
C74         C  0.11239457  0.35744996  0.40931721    -0.54200
C75         C  0.09182478  0.37622411  0.42739932     0.09800
C76         C  0.10877813  0.39999551  0.36827655    -0.53700
C77         C  0.08841527  0.41872763  0.38653310     0.10300
H78         H  0.17941245  0.40599873  0.40846962     0.14900
H79         H  0.07833097  0.42938818  0.43664163     0.00600
H80         H  0.11313128  0.33036569  0.41051111     0.15200
H81         H  0.10761212  0.40064517  0.34301603     0.15000
C82         C  0.11864687  0.12987940  0.37894543     0.86800
C83         C  0.09648968  0.10536484  0.36023889    -0.53500
C84         C  0.07764173  0.08485286  0.37847383     0.09700
C85         C  0.08325161  0.09064314  0.41374401     0.20600
C86         C  0.09452486  0.14861381  0.40057920    -0.54200
C87         C  0.07626688  0.12797112  0.41901377     0.09800
C88         C  0.13962144  0.10785351  0.40104275    -0.53700
C89         C  0.12101135  0.08732787  0.41931666     0.10300
H90         H  0.09553085  0.10464500  0.33498079     0.14900
H91         H  0.06815395  0.07389840  0.42872961     0.00600
H92         H  0.09250976  0.17564077  0.40171082     0.15200
H93         H  0.16658219  0.10837990  0.40213133     0.15000
N94         N  0.50404286  0.45061420  0.37464643    -0.36300
N95         N  0.45159721  0.99836281  0.36584512    -0.56900
N96         N  0.50332270  0.04888873  0.37240601    -0.36300
N97         N  0.04589442  0.99869309  0.36637334    -0.56900
C98         C  0.47764605  0.43103840  0.36789909     0.27200
C99         C  0.03012673  0.43155839  0.36963514     0.27200
C100        C  0.47740624  0.06746573  0.36240741     0.27200
C101        C  0.01967003  0.06758047  0.36303268     0.27200
C102        C  0.43297838  0.47353482  0.36678943     0.35900
C103        C  0.43234732  0.02592706  0.36370047     0.35900
C104        C  0.07230300  0.47611836  0.36970211     0.35900
C105        C  0.06435587  0.02632665  0.36133316     0.35900
C106        C  0.48850528  0.39976915  0.35893358    -0.21600
C107        C  0.02143710  0.39993227  0.35963674    -0.21600
C108        C  0.48883327  0.09642220  0.34858976    -0.21600
C109        C  0.00812153  0.09667917  0.34950405    -0.21600
C110        C  0.40034574  0.48275173  0.36195160    -0.22700
C111        C  0.39959402  0.01700313  0.35927220    -0.22700
C112        C  0.10370616  0.48648076  0.36137777    -0.22700
C113        C  0.09526775  0.01764073  0.35030761    -0.22700
C114        C  0.44402327  0.44033074  0.37032397    -0.18000
C115        C  0.06299174  0.44263071  0.37434865    -0.18000
C116        C  0.05347409  0.05921288  0.36649222    -0.18000
C117        C  0.44376343  0.05909442  0.36597596    -0.18000
H118        H  0.47328410  0.37906945  0.35118213     0.14900
H119        H  0.03813607  0.37996751  0.35316620     0.14900
H120        H  0.47399526  0.11573415  0.33766378     0.14900
H121        H  0.02291080  0.11647696  0.33943152     0.14900
H122        H  0.37954446  0.46625485  0.35772374     0.13200
H123        H  0.37896169  0.03362699  0.35479105     0.13200
H124        H  0.12444482  0.47075666  0.35509328     0.13200
H125        H  0.11453841  0.03439866  0.34236777     0.13200
H126        H  0.50313151  0.47466680  0.38347731     0.26400
H127        H  0.50189500  0.02668362  0.38487012     0.26400
C128        C  0.36505652  0.36928543  0.11714880     0.86800
C129        C  0.38870414  0.39351322  0.13427352    -0.53500
C130        C  0.40699588  0.41300764  0.11476113     0.09700
C131        C  0.39983660  0.40640952  0.08000921     0.20600
C132        C  0.34358492  0.39157168  0.09556666    -0.54200
C133        C  0.36198130  0.41132829  0.07624301     0.09800
C134        C  0.38744724  0.34919989  0.09516982    -0.53700
C135        C  0.40555019  0.36856380  0.07565507     0.10300
H136        H  0.39100355  0.39486721  0.15944599     0.14900
H137        H  0.41487485  0.42217889  0.06408781     0.00600
H138        H  0.31660690  0.39183099  0.09569254     0.15200
H139        H  0.38907830  0.32210993  0.09511760     0.15000
C140        C  0.13292665  0.37662790  0.11905139     0.86800
C141        C  0.11043765  0.40021377  0.13799926    -0.53500
C142        C  0.08959038  0.41902226  0.12010904     0.09700
C143        C  0.09320179  0.41251635  0.08490117     0.20600
C144        C  0.10887073  0.35568283  0.09869917    -0.54200
C145        C  0.08778221  0.37463871  0.08100980     0.09800
C146        C  0.15120315  0.39957349  0.09585631    -0.53700
C147        C  0.13033623  0.41820494  0.07775046     0.10300
H148        H  0.11053455  0.40138957  0.16326143     0.14900
H149        H  0.07621267  0.42793368  0.07032084     0.00600
H150        H  0.10881679  0.32857109  0.09806840     0.15200
H151        H  0.17806997  0.40135884  0.09424506     0.15000
N152        N  0.48947001  0.36107686  0.04702580    -0.36300
N153        N  0.44024342  0.35138827  0.99745787    -0.56900
N154        N  0.50910729  0.36206672  0.45534606    -0.36300
N155        N  0.05056443  0.36172164  0.00221300    -0.56900
C156        C  0.46256444  0.35055197  0.06272705     0.27200
C157        C  0.03099354  0.35319240  0.06737820     0.27200
C158        C  0.48251423  0.35570381  0.43685565     0.27200
C159        C  0.03462361  0.35811246  0.44020563     0.27200
C160        C  0.41988074  0.34941174  0.02216498     0.35900
C161        C  0.43850658  0.35604233  0.47624874     0.35900
C162        C  0.07217575  0.36122156  0.02637963     0.35900
C163        C  0.07735622  0.35898719  0.48151961     0.35900
C164        C  0.47202727  0.33514579  0.09014155    -0.21600
C165        C  0.02318466  0.33633305  0.09445126    -0.21600
C166        C  0.49316085  0.34413488  0.40830801    -0.21600
C167        C  0.02537281  0.34678319  0.41106827    -0.21600
C168        C  0.38828847  0.34056952  0.01281135    -0.22700
C169        C  0.40677728  0.34730611  0.48494480    -0.22700
C170        C  0.10434604  0.35930961  0.01587190    -0.22700
C171        C  0.10974846  0.35567991  0.49165682    -0.22700
C172        C  0.42970807  0.35500498  0.05303712    -0.18000
C173        C  0.06334162  0.36126271  0.05789569    -0.18000
C174        C  0.06764869  0.36239322  0.45015833    -0.18000
C175        C  0.44897212  0.35969510  0.44529705    -0.18000
H176        H  0.45597615  0.32351609  0.10714154     0.14900
H177        H  0.04038243  0.32623584  0.11146948     0.14900
H178        H  0.47778146  0.33574791  0.38911625     0.14900
H179        H  0.04167900  0.33837371  0.39272093     0.14900
H180        H  0.36754279  0.33455550  0.02768190     0.13200
H181        H  0.38667955  0.33978361  0.46970560     0.13200
H182        H  0.12641017  0.35559289  0.02988235     0.13200
H183        H  0.13151121  0.35249042  0.47732433     0.13200
H184        H  0.48931728  0.37478342  0.02641942     0.26400
H185        H  0.50884815  0.37253341  0.47741461     0.26400
C186        C  0.12086443  0.13403481  0.12319559     0.86800
C187        C  0.09472672  0.15173639  0.10253268    -0.53500
C188        C  0.07641235  0.13037122  0.08459926     0.09700
C189        C  0.08563897  0.09332036  0.08944224     0.20600
C190        C  0.10095223  0.10844026  0.14246244    -0.54200
C191        C  0.08234870  0.08714759  0.12482081     0.09800
C192        C  0.14175929  0.11306288  0.10030964    -0.53700
C193        C  0.12323442  0.09154612  0.08272810     0.10300
H194        H  0.09145995  0.17864790  0.10166939     0.14900
H195        H  0.07055350  0.07588617  0.07501631     0.00600
H196        H  0.10091524  0.10782308  0.16774232     0.15200
H197        H  0.16862255  0.11466232  0.09855768     0.15000
N198        N  0.44211277  0.49857426  0.12390342    -0.36300
N199        N  0.49213292  0.44733790  0.13180800    -0.56900
N200        N  0.05220652  0.50169810  0.13132149    -0.36300
N201        N  0.49138876  0.05512965  0.13432117    -0.56900
C202        C  0.42247815  0.47154394  0.12812089     0.27200
C203        C  0.42166478  0.03060487  0.13251376     0.27200
C204        C  0.07147431  0.47523796  0.13874197     0.27200
C205        C  0.06953488  0.02905949  0.14265209     0.27200
C206        C  0.46512812  0.42725640  0.13090912     0.35900
C207        C  0.03078766  0.42966391  0.13497769     0.35900
C208        C  0.46419505  0.07478550  0.13560477     0.35900
C209        C  0.02527485  0.07086398  0.14153749     0.35900
C210        C  0.39087128  0.48169511  0.13608190    -0.21600
C211        C  0.39021000  0.02045871  0.14110800    -0.21600
C212        C  0.10056715  0.48607571  0.15271154    -0.21600
C213        C  0.09894565  0.02027678  0.15723495    -0.21600
C214        C  0.47435442  0.39452903  0.13596156    -0.22700
C215        C  0.02253547  0.39649177  0.13848226    -0.22700
C216        C  0.47303972  0.10686019  0.14386656    -0.22700
C217        C  0.01439359  0.10231757  0.14950373    -0.22700
C218        C  0.43224716  0.43792583  0.12540558    -0.18000
C219        C  0.43150759  0.06416670  0.12944259    -0.18000
C220        C  0.05874505  0.06194955  0.13771910    -0.18000
C221        C  0.06350202  0.44171347  0.13267936    -0.18000
H222        H  0.37022710  0.46583594  0.14244882     0.14900
H223        H  0.36965021  0.03630478  0.14768986     0.14900
H224        H  0.12042498  0.47071060  0.16195050     0.14900
H225        H  0.11711638  0.03697711  0.16747867     0.14900
H226        H  0.45802962  0.37332760  0.13878099     0.13200
H227        H  0.03954978  0.37592193  0.14188003     0.13200
H228        H  0.45643857  0.12726809  0.14915237     0.13200
H229        H  0.02964828  0.12353716  0.15576378     0.13200
H230        H  0.46661641  0.49849540  0.11660455     0.26400
H231        H  0.02972275  0.50104568  0.11930092     0.26400
N232        N  0.13650833  0.45236141  0.99876666    -0.36300
N233        N  0.14137562  0.00686222  0.05059622    -0.56900
N234        N  0.13414768  0.05808452  0.00377076    -0.36300
N235        N  0.13780635  0.00282020  0.45068311    -0.56900
C236        C  0.14720402  0.43513023  0.02393151     0.27200
C237        C  0.14739486  0.43863918  0.48072093     0.27200
C238        C  0.14160573  0.07685712  0.02898575     0.27200
C239        C  0.14045580  0.07258601  0.47318496     0.27200
C240        C  0.14188763  0.47750045  0.06500734     0.35900
C241        C  0.14079653  0.03363924  0.06972266     0.35900
C242        C  0.14816648  0.48057871  0.43930391     0.35900
C243        C  0.13943690  0.02995584  0.43216936     0.35900
C244        C  0.16419566  0.40691877  0.01448911    -0.21600
C245        C  0.16311627  0.41010607  0.49121085    -0.21600
C246        C  0.15339365  0.10767368  0.01963057    -0.21600
C247        C  0.15261331  0.10333004  0.48240803    -0.21600
C248        C  0.14617888  0.48739042  0.09548956    -0.22700
C249        C  0.14478009  0.02372371  0.10023412    -0.22700
C250        C  0.15802766  0.49005174  0.40990383    -0.22700
C251        C  0.14639068  0.02081486  0.40198752    -0.22700
C252        C  0.14141298  0.44410249  0.05509427    -0.18000
C253        C  0.14398756  0.44748965  0.44924256    -0.18000
C254        C  0.13496398  0.06294560  0.44208291    -0.18000
C255        C  0.13714347  0.06702416  0.06010981    -0.18000
H256        H  0.17625626  0.38862371  0.02926420     0.14900
H257        H  0.17552169  0.39148465  0.47718882     0.14900
H258        H  0.16214175  0.12773199  0.03443195     0.14900
H259        H  0.16036282  0.12363906  0.46748180     0.14900
H260        H  0.15176824  0.47149158  0.11516798     0.13200
H261        H  0.14799131  0.03981882  0.12021134     0.13200
H262        H  0.16603033  0.47385452  0.39125889     0.13200
H263        H  0.15173146  0.03732109  0.38272821     0.13200
H264        H  0.12174581  0.47367831  0.99905233     0.26400
H265        H  0.12320949  0.03458166  0.00388975     0.26400
N266        N  0.43621953  0.14319546  0.99929073    -0.36300
N267        N  0.50517401  0.14043230  0.45373946    -0.56900
N268        N  0.04083703  0.13888773  0.00463394    -0.36300
N269        N  0.48686006  0.14528528  0.04871377    -0.56900
C270        C  0.43553224  0.14488503  0.47400598     0.27200
C271        C  0.41774672  0.15208525  0.02406199     0.27200
C272        C  0.06402522  0.14364645  0.47373953     0.27200
C273        C  0.06051878  0.14393312  0.02978877     0.27200
C274        C  0.47881052  0.14127136  0.43403827     0.35900
C275        C  0.01853582  0.14113978  0.43419741     0.35900
C276        C  0.45952512  0.15108900  0.06588615     0.35900
C277        C  0.01782876  0.14559344  0.07090414     0.35900
C278        C  0.40639261  0.16026792  0.48297753    -0.21600
C279        C  0.38859506  0.16696888  0.01403844    -0.21600
C280        C  0.09571632  0.15407996  0.48166949    -0.21600
C281        C  0.09185680  0.15333228  0.02018689    -0.21600
C282        C  0.48950661  0.14509122  0.40385066    -0.22700
C283        C  0.00730971  0.14575803  0.40407275    -0.22700
C284        C  0.46840760  0.16140250  0.09538665    -0.22700
C285        C  0.00855390  0.15585756  0.10025031    -0.22700
C286        C  0.44515542  0.13963888  0.44295541    -0.18000
C287        C  0.42665720  0.14696497  0.05538299    -0.18000
C288        C  0.05090022  0.14100586  0.06119784    -0.18000
C289        C  0.05230331  0.13946987  0.44289987    -0.18000
H290        H  0.38784357  0.17149194  0.46794043     0.14900
H291        H  0.36917143  0.17733750  0.02844544     0.14900
H292        H  0.11506052  0.16193523  0.46587739     0.14900
H293        H  0.11246738  0.16072626  0.03489622     0.14900
H294        H  0.47407414  0.14924920  0.38355822     0.13200
H295        H  0.02225754  0.15136989  0.38390096     0.13200
H296        H  0.45187557  0.16974615  0.11357810     0.13200
H297        H  0.02478387  0.16421619  0.11880354     0.13200
H298        H  0.45846328  0.13007283  0.00010561     0.26400
H299        H  0.01657875  0.13034597  0.00487191     0.26400
C300        C  0.36050359  0.12797539  0.11801180     0.86800
C301        C  0.38108897  0.14984220  0.09558239    -0.53500
C302        C  0.40200816  0.13194145  0.07714219     0.09700
C303        C  0.39993797  0.09378807  0.08253659     0.20600
C304        C  0.34217627  0.10274650  0.09686382    -0.54200
C305        C  0.36290420  0.08477759  0.07822967     0.09800
C306        C  0.38611285  0.10688067  0.13619228    -0.53700
C307        C  0.40666872  0.08878224  0.11761273     0.10300
H308        H  0.37987677  0.17693212  0.09493252     0.14900
H309        H  0.41683740  0.07912042  0.06738824     0.00600
H310        H  0.31537107  0.09961053  0.09641844     0.15200
H311        H  0.38721594  0.10561511  0.16143611     0.15000
N312        N  0.35344048  0.49584405  0.04454071    -0.36300
N313        N  0.35103705  0.44477880  0.99711517    -0.56900
N314        N  0.36753920  0.49584372  0.45262513    -0.36300
N315        N  0.35163537  0.04903870  0.99851591    -0.56900
C316        C  0.34478610  0.46921110  0.06202568     0.27200
C317        C  0.34613596  0.02639561  0.06416354     0.27200
C318        C  0.35878371  0.46868532  0.43580391     0.27200
C319        C  0.35894876  0.02441617  0.43393344     0.27200
C320        C  0.34480755  0.42536801  0.02208494     0.35900
C321        C  0.35754364  0.42511718  0.47551716     0.35900
C322        C  0.35015620  0.06965584  0.02335338     0.35900
C323        C  0.36300146  0.06827170  0.47366513     0.35900
C324        C  0.33208976  0.47989369  0.09011904    -0.21600
C325        C  0.33376865  0.01686689  0.09280227    -0.21600
C326        C  0.34338435  0.47842613  0.40849679    -0.21600
C327        C  0.34327954  0.01569565  0.40640379    -0.21600
C328        C  0.33536918  0.39382962  0.01273635    -0.22700
C329        C  0.34742905  0.39360391  0.48434052    -0.22700
C330        C  0.34656068  0.10227301  0.01367625    -0.22700
C331        C  0.35817966  0.10105606  0.48230155    -0.22700
C332        C  0.34811758  0.43557751  0.05320922    -0.18000
C333        C  0.35164223  0.05966833  0.05474464    -0.18000
C334        C  0.36661221  0.05735036  0.44284410    -0.18000
C335        C  0.36341224  0.43533056  0.44488692    -0.18000
H336        H  0.32231848  0.46443084  0.10861369     0.14900
H337        H  0.32531401  0.03309664  0.11126118     0.14900
H338        H  0.33252328  0.46229788  0.39096504     0.14900
H339        H  0.33380790  0.03244677  0.38869611     0.14900
H340        H  0.32667573  0.37377475  0.02747916     0.13200
H341        H  0.34049285  0.37312751  0.46922629     0.13200
H342        H  0.34192779  0.12369522  0.02829660     0.13200
H343        H  0.35467620  0.12219005  0.46698399     0.13200
H344        H  0.36527834  0.49512308  0.02316241     0.26400
H345        H  0.38058623  0.49585489  0.47358803     0.26400
C346        C  0.33468747  0.35747512  0.34410144    -0.16200
C347        C  0.36033431  0.34595790  0.36119364    -0.31300
H348        H  0.32710474  0.38342802  0.34611172     0.12900
H349        H  0.36688014  0.31964115  0.36009792     0.13400
C350        C  0.36057117  0.17086763  0.34171568    -0.16200
C351        C  0.35148740  0.14597174  0.36078636    -0.31300
H352        H  0.38630177  0.17908455  0.34145406     0.12900
H353        H  0.32535674  0.13912071  0.36167761     0.13400
C354        C  0.15649281  0.35848750  0.36617594    -0.16200
C355        C  0.14520354  0.33322927  0.34848764    -0.31300
H356        H  0.18257061  0.36547277  0.36501717     0.12900
H357        H  0.11949771  0.32519620  0.35038071     0.13400
C358        C  0.32344891  0.35873087  0.15860975    -0.16200
C359        C  0.34617974  0.34689985  0.13891016    -0.31300
H360        H  0.31606504  0.38481721  0.15762404     0.12900
H361        H  0.35217702  0.32040828  0.13934067     0.13400
C362        C  0.13876674  0.15334443  0.35889910    -0.16200
C363        C  0.16495412  0.14318451  0.34210182    -0.31300
H364        H  0.13181170  0.17958300  0.35840736     0.12900
H365        H  0.17320604  0.11738163  0.34336979     0.13400
C366        C  0.14454112  0.33318039  0.15928948    -0.16200
C367        C  0.15610128  0.35649244  0.13960125    -0.31300
H368        H  0.11837572  0.32648788  0.15870577     0.12900
H369        H  0.18254863  0.36203782  0.13926366     0.13400
C370        C  0.34911093  0.17248013  0.15694401    -0.16200
C371        C  0.33772378  0.14728494  0.13922877    -0.31300
H372        H  0.37468649  0.18079535  0.15460526     0.12900
H373        H  0.31178062  0.13990367  0.14075439     0.13400
C374        C  0.14072162  0.15780813  0.14334551    -0.16200
C375        C  0.16673188  0.14741602  0.16052011    -0.31300
H376        H  0.13294938  0.18377151  0.14465026     0.12900
H377        H  0.17542620  0.12182463  0.15842223     0.13400
N378        N  0.20277699  0.31276490  0.71990899    -0.05900
N379        N  0.19353510  0.33431137  0.69821951    -0.58000
N380        N  0.19287399  0.29138512  0.79442012    -0.05500
N381        N  0.17250233  0.30196081  0.81639868    -0.60100
N382        N  0.21661866  0.31351593  0.78994788    -0.05100
N383        N  0.21289951  0.33932792  0.80869399    -0.58000
N384        N  0.17927322  0.29043116  0.72442916    -0.04800
N385        N  0.15355149  0.29632898  0.70607962    -0.60500
C386        C  0.16284660  0.32357825  0.68978432     0.96300
C387        C  0.18559754  0.33172549  0.82528686     0.96100
N388        N  0.21247722  0.18713096  0.79030167    -0.06000
N389        N  0.20771586  0.16256070  0.81031015    -0.58600
N390        N  0.17699891  0.21216140  0.72403985    -0.04200
N391        N  0.15184672  0.20876682  0.70437529    -0.59800
N392        N  0.19935208  0.18868199  0.71938915    -0.06100
N393        N  0.18992925  0.16902762  0.69620686    -0.58800
N394        N  0.19047576  0.21100159  0.79465676    -0.03800
N395        N  0.17033554  0.20301827  0.81775877    -0.59900
Mn396      Mn  0.18412350  0.25116644  0.75984047     1.18400
C397        C  0.18164489  0.17287558  0.82749448     0.98400
C398        C  0.16029229  0.18194219  0.68703372     0.99100
N399        N  0.29398714  0.30953692  0.77750247    -0.06100
N400        N  0.30412235  0.32933082  0.80025239    -0.62400
N401        N  0.30218506  0.28801014  0.70258266    -0.04900
N402        N  0.32327603  0.29731078  0.68071992    -0.63100
N403        N  0.28009986  0.31171730  0.70731718    -0.05600
N404        N  0.28560909  0.33735549  0.68874997    -0.62700
N405        N  0.31616185  0.28606234  0.77241748    -0.04500
N406        N  0.34184750  0.28937477  0.79137430    -0.63400
Mn407      Mn  0.24840466  0.31254775  0.74868209     1.10700
C408        C  0.33395791  0.31630151  0.80866544     0.99600
C409        C  0.31232913  0.32798173  0.67211838     0.99700
N410        N  0.27690656  0.18477732  0.70756045    -0.05600
N411        N  0.28088604  0.15932808  0.68839055    -0.61000
N412        N  0.31379675  0.20875319  0.77284320    -0.04900
N413        N  0.33899138  0.20477321  0.79225281    -0.57700
N414        N  0.29039766  0.18653716  0.77826492    -0.06200
N415        N  0.29929531  0.16696703  0.80174038    -0.60500
N416        N  0.29985264  0.20762172  0.70266083    -0.05200
N417        N  0.31986227  0.19805145  0.68005095    -0.57700
Mn418      Mn  0.24472342  0.18583707  0.74892917     1.20200
Mn419      Mn  0.30861207  0.24752847  0.73702443     1.10100
Cl420      Cl  0.24640526  0.24924387  0.74853013    -0.85700
C421        C  0.30745508  0.16806949  0.67113146     0.96600
C422        C  0.32966158  0.17881484  0.81021502     0.96400
C423        C  0.36784057  0.37009311  0.87609414     0.86800
C424        C  0.38855397  0.34725885  0.89783064    -0.53500
C425        C  0.40837837  0.36467689  0.91807073     0.09700
C426        C  0.40517715  0.40292036  0.91491004     0.20600
C427        C  0.34825741  0.39313359  0.89801825    -0.54200
C428        C  0.36765207  0.41029431  0.91839695     0.09800
C429        C  0.39347966  0.39301124  0.86009856    -0.53700
C430        C  0.41326728  0.41009886  0.88048636     0.10300
H431        H  0.38786080  0.32015908  0.89706292     0.14900
H432        H  0.42105267  0.41710190  0.93153438     0.00600
H433        H  0.32139552  0.39581283  0.89743990     0.15200
H434        H  0.39548936  0.39578102  0.83502591     0.15000
C435        C  0.36392544  0.12463740  0.87783260     0.86800
C436        C  0.39044525  0.10365698  0.86088629    -0.53500
C437        C  0.41111808  0.08664431  0.88047398     0.09700
C438        C  0.40306029  0.09186043  0.91519301     0.20600
C439        C  0.34559831  0.09960976  0.89891314    -0.57900
C440        C  0.36604906  0.08234426  0.91841532     0.09800
C441        C  0.38374549  0.14737218  0.90051534    -0.53700
C442        C  0.40442460  0.13002519  0.92013964     0.10300
H443        H  0.39204598  0.10163881  0.83572442     0.14900
H444        H  0.41970188  0.07766534  0.93114235     0.00600
H445        H  0.31882768  0.09611179  0.89874499     0.15200
H446        H  0.38216582  0.17444234  0.90049102     0.15000
C447        C  0.12334158  0.37277477  0.88196665     0.86800
C448        C  0.14403927  0.39625289  0.90318126    -0.53500
C449        C  0.12510386  0.41775009  0.92031443     0.09700
C450        C  0.08735941  0.41335043  0.91480155     0.20600
C451        C  0.09917347  0.35501025  0.90406258    -0.54200
C452        C  0.08034020  0.37617365  0.92118346     0.09800
C453        C  0.10112226  0.39610614  0.86206243    -0.53700
C454        C  0.08203351  0.41725953  0.87942603     0.10300
H455        H  0.17099275  0.39599658  0.90438847     0.14900
H456        H  0.07185203  0.43051465  0.92896040     0.00600
H457        H  0.09748313  0.32804834  0.90650652     0.15200
H458        H  0.09971972  0.39507669  0.83683049     0.15000
C459        C  0.11807936  0.13600308  0.88574862     0.86800
C460        C  0.09761974  0.11119423  0.86575312    -0.53500
C461        C  0.07912664  0.08934910  0.88290327     0.09700
C462        C  0.08303572  0.09427789  0.91836575     0.20600
C463        C  0.09234041  0.15307603  0.90698715    -0.54200
C464        C  0.07404296  0.13119102  0.92421751     0.09800
C465        C  0.13910602  0.11401524  0.90790603    -0.53700
C466        C  0.12073130  0.09195507  0.92483435     0.10300
H467        H  0.09738382  0.11131750  0.84047253     0.14900
H468        H  0.06806762  0.07647318  0.93237622     0.00600
H469        H  0.08926896  0.17996153  0.90870279     0.15200
H470        H  0.16598290  0.11554176  0.90981490     0.15000
N471        N  0.49955248  0.44382510  0.87211206    -0.36300
N472        N  0.44726570  0.00179395  0.87021814    -0.56900
N473        N  0.49678495  0.05455452  0.87304080    -0.36300
N474        N  0.04856781  0.00334607  0.86979226    -0.56900
C475        C  0.47221949  0.42474904  0.86739029     0.27200
C476        C  0.02274769  0.42835576  0.86625276     0.27200
C477        C  0.46931306  0.07194672  0.86483968     0.27200
C478        C  0.02196217  0.07196862  0.86739447     0.27200
C479        C  0.42899391  0.46868179  0.86757134     0.35900
C480        C  0.42667894  0.02823850  0.86768610     0.35900
C481        C  0.06393420  0.47364423  0.86144463     0.35900
C482        C  0.06703650  0.03100324  0.86504384     0.35900
C483        C  0.48176726  0.39316567  0.85806390    -0.21600
C484        C  0.01344599  0.39653898  0.85737218    -0.21600
C485        C  0.47836845  0.10111925  0.84989713    -0.21600
C486        C  0.00996295  0.10094232  0.85403632    -0.21600
C487        C  0.39659918  0.47878075  0.86295174    -0.22700
C488        C  0.39465667  0.01772083  0.86180831    -0.22700
C489        C  0.09424028  0.48473010  0.85069913    -0.22700
C490        C  0.09828534  0.02239947  0.85476151    -0.22700
C491        C  0.43893424  0.43513812  0.87104839    -0.18000
C492        C  0.05579221  0.43999927  0.86687397    -0.18000
C493        C  0.05582106  0.06382582  0.86980172    -0.18000
C494        C  0.43636165  0.06180970  0.87010762    -0.18000
H495        H  0.46559995  0.37283787  0.85121631     0.14900
H496        H  0.02955928  0.37692149  0.84896209     0.14900
H497        H  0.46192441  0.11951772  0.83964844     0.14900
H498        H  0.02437934  0.12055323  0.84318925     0.14900
H499        H  0.37528863  0.46288835  0.85908304     0.13200
H500        H  0.37343804  0.03326666  0.85645317     0.13200
H501        H  0.11473808  0.46950573  0.84281068     0.13200
H502        H  0.11769971  0.03921663  0.84723080     0.13200
H503        H  0.50000502  0.46808604  0.88049678     0.26400
H504        H  0.49748048  0.03239189  0.88565838     0.26400
C505        C  0.37847470  0.36715832  0.61846861     0.86800
C506        C  0.39865836  0.39255693  0.63819824    -0.53500
C507        C  0.41729898  0.41409355  0.62066457     0.09700
C508        C  0.41379225  0.40809094  0.58538673     0.20600
C509        C  0.35763865  0.38856481  0.59575806    -0.54200
C510        C  0.37612689  0.41041069  0.57882239     0.09800
C511        C  0.40438802  0.34960335  0.59800409    -0.53700
C512        C  0.42289194  0.37092911  0.58064822     0.10300
H513        H  0.39886740  0.39282402  0.66347021     0.14900
H514        H  0.42889234  0.42546796  0.57103973     0.00600
H515        H  0.33077205  0.38705478  0.59366805     0.15200
H516        H  0.40741056  0.32267041  0.59678986     0.15000
C517        C  0.12833596  0.38289467  0.62669475     0.86800
C518        C  0.10318080  0.40509149  0.64409597    -0.53500
C519        C  0.08230907  0.42229639  0.62482502     0.09700
C520        C  0.08849393  0.41548092  0.58992710     0.20600
C521        C  0.10716663  0.36006348  0.60544600    -0.54200
C522        C  0.08610168  0.37723197  0.58631670     0.09800
C523        C  0.14642031  0.40669123  0.60422138    -0.53700
C524        C  0.12556341  0.42352006  0.58468757     0.10300
H525        H  0.10200885  0.40698237  0.66928963     0.14900
H526        H  0.07148422  0.42948342  0.57417318     0.00600
H527        H  0.10899363  0.33300157  0.60524967     0.15200
H528        H  0.17318914  0.41013198  0.60388974     0.15000
N529        N  0.50829538  0.36289628  0.55134672    -0.36300
N530        N  0.45804479  0.36004828  0.50161429    -0.56900
N531        N  0.49138611  0.35546923  0.95144913    -0.36300
N532        N  0.05645233  0.35927760  0.50602504    -0.56900
C533        C  0.48087169  0.35377662  0.56717919     0.27200
C534        C  0.03079029  0.35632487  0.56979370     0.27200
C535        C  0.46536658  0.34677234  0.93317494     0.27200
C536        C  0.02413278  0.35675143  0.93737892     0.27200
C537        C  0.43803401  0.35629676  0.52641201     0.35900
C538        C  0.42092869  0.34649852  0.97211644     0.35900
C539        C  0.07586550  0.35891264  0.53173267     0.35900
C540        C  0.06929829  0.36249788  0.97630580     0.35900
C541        C  0.48994762  0.33777773  0.59447214    -0.21600
C542        C  0.01987107  0.33987984  0.59609551    -0.21600
C543        C  0.47672718  0.33490178  0.90499363    -0.21600
C544        C  0.01450338  0.34358491  0.90898013    -0.21600
C545        C  0.40645426  0.34752483  0.51692360    -0.22700
C546        C  0.38893808  0.33876222  0.98083305    -0.22700
C547        C  0.10880612  0.35574591  0.52365060    -0.22700
C548        C  0.10253555  0.36001483  0.98400337    -0.22700
C549        C  0.44798580  0.35978312  0.55756439    -0.18000
C550        C  0.06421328  0.36163366  0.56238415    -0.18000
C551        C  0.05708691  0.36473994  0.94566900    -0.18000
C552        C  0.43168309  0.34965967  0.94123218    -0.18000
H553        H  0.47355412  0.32671868  0.61150753     0.14900
H554        H  0.03506768  0.32792426  0.61373010     0.14900
H555        H  0.46185167  0.32536048  0.88590655     0.14900
H556        H  0.03050907  0.33641525  0.88997199     0.14900
H557        H  0.38605249  0.34013242  0.53167018     0.13200
H558        H  0.36871004  0.33137814  0.96566138     0.13200
H559        H  0.12966411  0.35257930  0.53932589     0.13200
H560        H  0.12301869  0.35701709  0.96809939     0.13200
H561        H  0.50877461  0.37660842  0.53077509     0.26400
H562        H  0.49021014  0.36686037  0.97307980     0.26400
C563        C  0.12737429  0.12658447  0.61955156     0.86800
C564        C  0.10390338  0.14725833  0.59816560    -0.53500
C565        C  0.08429169  0.12791024  0.57912493     0.09700
C566        C  0.08994885  0.09011623  0.58361558     0.20600
C567        C  0.10441593  0.10250773  0.63743928    -0.54200
C568        C  0.08471910  0.08342842  0.61872121     0.09800
C569        C  0.14704673  0.10412946  0.59706887    -0.53700
C570        C  0.12742515  0.08523797  0.57812880     0.10300
H571        H  0.10290250  0.17435229  0.59815251     0.14900
H572        H  0.07404199  0.07432428  0.56833431     0.00600
H573        H  0.10395221  0.10058946  0.66265910     0.15200
H574        H  0.17400223  0.10311771  0.59622732     0.15000
N575        N  0.44903544  0.50026924  0.63208476    -0.36300
N576        N  0.50155475  0.45071662  0.63534645    -0.56900
N577        N  0.04496216  0.50527114  0.63117774    -0.36300
N578        N  0.49590200  0.04922155  0.63623036    -0.56900
C579        C  0.43088327  0.47246967  0.63770518     0.27200
C580        C  0.42544247  0.02711091  0.63816332     0.27200
C581        C  0.06328940  0.47902160  0.64104906     0.27200
C582        C  0.07130956  0.02493514  0.63465830     0.27200
C583        C  0.47521800  0.42970995  0.63564952     0.35900
C584        C  0.02273074  0.43344762  0.63761716     0.35900
C585        C  0.46957399  0.06950870  0.64072368     0.35900
C586        C  0.02755590  0.06697648  0.63618636     0.35900
C587        C  0.39981508  0.48151837  0.64832957    -0.21600
C588        C  0.39426094  0.01751410  0.64805008    -0.21600
C589        C  0.09125461  0.49023244  0.65665656    -0.21600
C590        C  0.10101471  0.01588277  0.64851175    -0.21600
C591        C  0.48592793  0.39720328  0.63905622    -0.22700
C592        C  0.01410667  0.40031459  0.64060943    -0.22700
C593        C  0.48012528  0.10073638  0.65003485    -0.22700
C594        C  0.01727496  0.09821002  0.64551779    -0.22700
C595        C  0.44153880  0.43923143  0.63317810    -0.18000
C596        C  0.43621849  0.06040657  0.63569944    -0.18000
C597        C  0.06066085  0.05794723  0.63042898    -0.18000
C598        C  0.05555161  0.44530151  0.63571932    -0.18000
H599        H  0.38020440  0.46490906  0.65582911     0.14900
H600        H  0.37453576  0.03368675  0.65607016     0.14900
H601        H  0.11014468  0.47513521  0.66786930     0.14900
H602        H  0.11946584  0.03236415  0.65860454     0.14900
H603        H  0.47050989  0.37542202  0.64248391     0.13200
H604        H  0.03088502  0.37951413  0.64376628     0.13200
H605        H  0.46467142  0.12147822  0.65707381     0.13200
H606        H  0.03290499  0.11926309  0.65142209     0.13200
H607        H  0.47266490  0.50101684  0.62258850     0.26400
H608        H  0.02340869  0.50413861  0.61769686     0.26400
N609        N  0.13648919  0.45675675  0.50514513    -0.36300
N610        N  0.14403253  0.00104072  0.54503330    -0.56900
N611        N  0.13521126  0.05318340  0.49845919    -0.36300
N612        N  0.13708684  0.00690386  0.95596624    -0.56900
C613        C  0.14431240  0.43940332  0.53116569     0.27200
C614        C  0.14562417  0.43475556  0.97334614     0.27200
C615        C  0.14320199  0.07156818  0.52372927     0.27200
C616        C  0.14024195  0.07704076  0.97842007     0.27200
C617        C  0.13749102  0.48261759  0.57114332     0.35900
C618        C  0.14480486  0.02774594  0.56416655     0.35900
C619        C  0.13930837  0.47707876  0.93268851     0.35900
C620        C  0.13933656  0.03412704  0.93755080     0.35900
C621        C  0.16121875  0.41061728  0.52328451    -0.21600
C622        C  0.16319506  0.40668122  0.98233591    -0.21600
C623        C  0.15430181  0.10270554  0.51452761    -0.21600
C624        C  0.15250584  0.10779514  0.98750746    -0.21600
C625        C  0.13986988  0.49303255  0.60163199    -0.22700
C626        C  0.15039879  0.01772516  0.59447136    -0.22700
C627        C  0.14531802  0.48731167  0.90264219    -0.22700
C628        C  0.14759709  0.02493836  0.90767492    -0.22700
C629        C  0.13669894  0.44908507  0.56176842    -0.18000
C630        C  0.13838766  0.44358052  0.94236177    -0.18000
C631        C  0.13479907  0.06727642  0.94738429    -0.18000
C632        C  0.14020661  0.06107898  0.55483508    -0.18000
H633        H  0.17193163  0.39247727  0.53908624     0.14900
H634        H  0.17436478  0.38819792  0.96728072     0.14900
H635        H  0.16341570  0.12251391  0.52943511     0.14900
H636        H  0.16054727  0.12793455  0.97251855     0.14900
H637        H  0.14367941  0.47745583  0.62187564     0.13200
H638        H  0.15449446  0.03365427  0.61442951     0.13200
H639        H  0.15201172  0.47160384  0.88320258     0.13200
H640        H  0.15379579  0.04148779  0.88867577     0.13200
H641        H  0.12265514  0.47866214  0.50398624     0.26400
H642        H  0.12471047  0.02949632  0.49867094     0.26400
N643        N  0.45289637  0.13509755  0.49947210    -0.36300
N644        N  0.48848663  0.14495249  0.95384666    -0.56900
N645        N  0.04662431  0.13767409  0.49993347    -0.36300
N646        N  0.50331724  0.13739824  0.54889049    -0.56900
C647        C  0.41867643  0.15140906  0.97347396     0.27200
C648        C  0.43446401  0.14317078  0.52456261     0.27200
C649        C  0.05954173  0.14440212  0.97909885     0.27200
C650        C  0.06711854  0.14350859  0.52451622     0.27200
C651        C  0.46231678  0.14674360  0.93403558     0.35900
C652        C  0.01530982  0.14487358  0.93875333     0.35900
C653        C  0.47585473  0.14049055  0.56652573     0.35900
C654        C  0.02577306  0.14325911  0.56645978     0.35900
C655        C  0.38919501  0.16655601  0.98186793    -0.21600
C656        C  0.40570739  0.15918283  0.51508125    -0.21600
C657        C  0.09123662  0.15365905  0.98809361    -0.21600
C658        C  0.09765046  0.15398864  0.51379904    -0.21600
C659        C  0.47318626  0.15048541  0.90390127    -0.22700
C660        C  0.00473478  0.15007871  0.90856343    -0.22700
C661        C  0.48444973  0.14946565  0.59646973    -0.22700
C662        C  0.01635017  0.15226891  0.59609250    -0.22700
C663        C  0.42866714  0.14517392  0.94268596    -0.18000
C664        C  0.44308355  0.13648590  0.55572283    -0.18000
C665        C  0.05877450  0.14044792  0.55633006    -0.18000
C666        C  0.04888784  0.14131890  0.94791080    -0.18000
H667        H  0.37031644  0.17649709  0.96640163     0.14900
H668        H  0.38658729  0.16959273  0.52979545     0.14900
H669        H  0.11132180  0.16125117  0.97302804     0.14900
H670        H  0.11863595  0.16197040  0.52776828     0.14900
H671        H  0.45793774  0.15486446  0.88351280     0.13200
H672        H  0.02021392  0.15480095  0.88856157     0.13200
H673        H  0.46769252  0.15647662  0.61492479     0.13200
H674        H  0.03237411  0.16085280  0.61473260     0.13200
H675        H  0.47494932  0.12155337  0.49972231     0.26400
H676        H  0.02273085  0.12822755  0.50060072     0.26400
C677        C  0.37186705  0.12929650  0.61541264     0.86800
C678        C  0.39692875  0.14683631  0.59387580    -0.53500
C679        C  0.41687562  0.12546587  0.57798489     0.09700
C680        C  0.41007772  0.08828952  0.58538016     0.20600
C681        C  0.35264721  0.10493357  0.59402904    -0.54200
C682        C  0.37276017  0.08312889  0.57855934     0.09800
C683        C  0.39322234  0.10680410  0.63689697    -0.53700
C684        C  0.41327197  0.08523483  0.62107228     0.10300
H685        H  0.39875074  0.17377279  0.59134296     0.14900
H686        H  0.42642780  0.07081795  0.57243205     0.00600
H687        H  0.32583057  0.10518453  0.59109131     0.15200
H688        H  0.39250011  0.10785588  0.66214421     0.15000
N689        N  0.36460391  0.49581538  0.54837129    -0.36300
N690        N  0.36154416  0.44485789  0.50060911    -0.56900
N691        N  0.35938182  0.49479737  0.94873285    -0.36300
N692        N  0.36259801  0.04823226  0.49887588    -0.56900
C693        C  0.35897781  0.46856241  0.56612569     0.27200
C694        C  0.35533735  0.02500827  0.56434547     0.27200
C695        C  0.34970561  0.46790803  0.93215264     0.27200
C696        C  0.34860154  0.02459659  0.93351873     0.27200
C697        C  0.35648894  0.42521455  0.52559409     0.35900
C698        C  0.34820994  0.42473549  0.97202608     0.35900
C699        C  0.35977958  0.06859397  0.52374299     0.35900
C700        C  0.35142727  0.06894178  0.97313891     0.35900
C701        C  0.34889202  0.47829715  0.59540559    -0.21600
C702        C  0.34457092  0.01559703  0.59353639    -0.21600
C703        C  0.33457494  0.47784866  0.90472889    -0.21600
C704        C  0.33503725  0.01439603  0.90544152    -0.21600
C705        C  0.34675419  0.39365580  0.51635645    -0.22700
C706        C  0.33749576  0.39344483  0.98076316    -0.22700
C707        C  0.35610414  0.10126676  0.51417365    -0.22700
C708        C  0.34735237  0.10181364  0.98174721    -0.22700
C709        C  0.36209476  0.43512998  0.55648512    -0.18000
C710        C  0.36100343  0.05833201  0.55502556    -0.18000
C711        C  0.35419608  0.05800936  0.94217861    -0.18000
C712        C  0.35441053  0.43473031  0.94132444    -0.18000
H713        H  0.34119688  0.46213510  0.61423560     0.14900
H714        H  0.33769925  0.03199587  0.61243687     0.14900
H715        H  0.32357193  0.46196556  0.88708691     0.14900
H716        H  0.32548302  0.03015735  0.88699568     0.14900
H717        H  0.33937486  0.37312788  0.53117387     0.13200
H718        H  0.33046844  0.37315945  0.96548879     0.13200
H719        H  0.35100635  0.12267455  0.52869786     0.13200
H720        H  0.34339521  0.12278576  0.96634615     0.13200
H721        H  0.37383471  0.49585092  0.52593097     0.26400
H722        H  0.37274671  0.49451381  0.96954857     0.26400
C723        C  0.35622366  0.33044166  0.83254050    -0.16200
C724        C  0.34509861  0.35243646  0.85347180    -0.31300
H725        H  0.38218946  0.32300275  0.83274234     0.12900
H726        H  0.31880616  0.35871588  0.85359016     0.13400
C727        C  0.35140714  0.16455624  0.83463026    -0.16200
C728        C  0.34050675  0.14236697  0.85561164    -0.31300
H729        H  0.37739253  0.17196620  0.83491615     0.12900
H730        H  0.31433266  0.13562629  0.85568843     0.13400
C731        C  0.14309204  0.34770538  0.86335091    -0.16200
C732        C  0.16872255  0.35631197  0.84532603    -0.31300
H733        H  0.13593154  0.32153810  0.86453200     0.12900
H734        H  0.17698567  0.38214470  0.84464109     0.13400
C735        C  0.33101582  0.35158723  0.65260851    -0.16200
C736        C  0.35831663  0.34247841  0.63707806    -0.31300
H737        H  0.32270182  0.37739794  0.65178476     0.12900
H738        H  0.36598042  0.31643749  0.63740052     0.13400
C739        C  0.13819704  0.16054708  0.86664827    -0.16200
C740        C  0.16396485  0.15051656  0.84920781    -0.31300
H741        H  0.13114098  0.18675396  0.86668277     0.12900
H742        H  0.17151220  0.12446401  0.84985120     0.13400
C743        C  0.14079404  0.34055448  0.66743855    -0.16200
C744        C  0.15173778  0.36446674  0.64818655    -0.31300
H745        H  0.11477973  0.33326508  0.66683416     0.12900
H746        H  0.17796842  0.37097946  0.64811630     0.13400
C747        C  0.32485045  0.14442690  0.65054003    -0.16200
C748        C  0.35046643  0.15399522  0.63279055    -0.31300
H749        H  0.31762372  0.11828224  0.65123502     0.12900
H750        H  0.35681515  0.18036387  0.63153592     0.13400
C751        C  0.15002546  0.14622230  0.64112522    -0.16200
C752        C  0.13841275  0.16730422  0.66281442    -0.31300
H753        H  0.17660228  0.14145876  0.64018523     0.12900
H754        H  0.11206908  0.17319680  0.66335614     0.13400
N755        N  0.20117173  0.80500122  0.21512684    -0.05900
N756        N  0.19253959  0.82670896  0.19347137    -0.58000
N757        N  0.18100542  0.77833476  0.28585809    -0.05500
N758        N  0.15679085  0.78234211  0.30614385    -0.60100
N759        N  0.20124841  0.80412616  0.28650709    -0.05100
N760        N  0.19147451  0.82606913  0.30741711    -0.58000
N761        N  0.18096887  0.77917699  0.21486481    -0.04800
N762        N  0.15777151  0.78301494  0.19329189    -0.60500
C763        C  0.16561585  0.81256551  0.17994116     0.96300
C764        C  0.16391384  0.81200190  0.31960776     0.96100
N765        N  0.21814904  0.68031138  0.28546296    -0.06000
N766        N  0.21474561  0.65715327  0.30719135    -0.58600
N767        N  0.19195137  0.70122950  0.21382358    -0.04200
N768        N  0.17063784  0.69286260  0.19168534    -0.59800
N769        N  0.21772299  0.68097650  0.21378850    -0.06100
N770        N  0.21426533  0.65821509  0.19170457    -0.58800
N771        N  0.19231394  0.70050327  0.28547844    -0.03800
N772        N  0.17111583  0.69183189  0.30738022    -0.59900
Mn773      Mn  0.18570923  0.73956769  0.25000185     1.18400
C774        C  0.18550561  0.66495082  0.32086241     0.98400
C775        C  0.18498220  0.66617332  0.17793285     0.99100
N776        N  0.27872945  0.81564411  0.28627927    -0.06100
N777        N  0.28251988  0.83985150  0.30683129    -0.62400
N778        N  0.30381502  0.79733771  0.21462535    -0.04900
N779        N  0.32490207  0.80830888  0.19350100    -0.63100
N780        N  0.27777733  0.81713232  0.21588409    -0.05600
N781        N  0.28062372  0.84205169  0.19599494    -0.62700
N782        N  0.30495391  0.79599174  0.28605028    -0.04500
N783        N  0.32698381  0.80624388  0.30684667    -0.63400
Mn784      Mn  0.23957644  0.81104241  0.25107061     1.10700
C785        C  0.31247584  0.83342310  0.31972344     0.99600
C786        C  0.30987602  0.83601295  0.18198064     0.99700
N787        N  0.29575689  0.69207103  0.21344054    -0.05600
N788        N  0.30479957  0.67079096  0.19153190    -0.61000
N789        N  0.31703311  0.71768906  0.28461462    -0.04900
N790        N  0.34126107  0.71449784  0.30527064    -0.57700
N791        N  0.29711300  0.69157342  0.28542433    -0.06200
N792        N  0.30732016  0.67026530  0.30703733    -0.60500
N793        N  0.31542219  0.71839811  0.21341304    -0.05200
N794        N  0.33844515  0.71530843  0.19174574    -0.57700
Mn795      Mn  0.25732102  0.68514757  0.24964660     1.20200
Mn796      Mn  0.31115934  0.75741701  0.24957883     1.10100
Cl797      Cl  0.24850839  0.74817535  0.25016078    -0.85700
C798        C  0.33128109  0.68572446  0.17803520     0.96600
C799        C  0.33473508  0.68506707  0.31937072     0.96400
C800        C  0.37358832  0.86913909  0.38030507     0.86800
C801        C  0.39749916  0.85035462  0.40218016    -0.53500
C802        C  0.41580917  0.87084287  0.42074364     0.09700
C803        C  0.40848013  0.90829396  0.41581551     0.20600
C804        C  0.35223269  0.89119271  0.40195758    -0.54200
C805        C  0.37056920  0.91202544  0.42040161     0.09800
C806        C  0.39586902  0.89366850  0.36209061    -0.53700
C807        C  0.41437694  0.91408955  0.38080550     0.10300
H808        H  0.39958322  0.82331955  0.40318765     0.14900
H809        H  0.42350556  0.92493808  0.43108571     0.00600
H810        H  0.32526087  0.89063053  0.40242095     0.15200
H811        H  0.39753633  0.89415294  0.33686880     0.15000
C812        C  0.37175300  0.62553287  0.38201139     0.86800
C813        C  0.39688674  0.60472626  0.36311592    -0.53500
C814        C  0.41788692  0.58611919  0.38111535     0.09700
C815        C  0.41188110  0.59016406  0.41634662     0.20600
C816        C  0.35391472  0.59988596  0.40294325    -0.57900
C817        C  0.37491906  0.58126306  0.42085024     0.09800
C818        C  0.39314767  0.64671881  0.40471395    -0.53700
C819        C  0.41437063  0.62809061  0.42271631     0.10300
H820        H  0.39723845  0.60390845  0.33784954     0.14900
H821        H  0.42896114  0.57493970  0.43100619     0.00600
H822        H  0.32709555  0.59705021  0.40391576     0.15200
H823        H  0.39200857  0.67377707  0.40600869     0.15000
C824        C  0.12901994  0.87494233  0.37843172     0.86800
C825        C  0.14773835  0.89930060  0.39996318    -0.53500
C826        C  0.12739760  0.91759105  0.41846683     0.09700
C827        C  0.09008842  0.91021671  0.41337286     0.20600
C828        C  0.10741437  0.85368849  0.40039032    -0.54200
C829        C  0.08677566  0.87225144  0.41846968     0.09800
C830        C  0.10431285  0.89686427  0.35982171    -0.53700
C831        C  0.08382932  0.91544252  0.37820549     0.10300
H832        H  0.17461170  0.90181402  0.40065912     0.14900
H833        H  0.07350043  0.92531624  0.42845851     0.00600
H834        H  0.10852492  0.82662176  0.40174850     0.15200
H835        H  0.10318911  0.89760858  0.33456738     0.15000
C836        C  0.12462042  0.63366985  0.38352484     0.86800
C837        C  0.10229008  0.60926935  0.36507713    -0.53500
C838        C  0.08362936  0.58891396  0.38343489     0.09700
C839        C  0.08937133  0.59465600  0.41861879     0.20600
C840        C  0.10062802  0.65262004  0.40524810    -0.54200
C841        C  0.08232938  0.63204971  0.42387370     0.09800
C842        C  0.14570644  0.61162571  0.40549443    -0.53700
C843        C  0.12716743  0.59104872  0.42376001     0.10300
H844        H  0.10126922  0.60830507  0.33982125     0.14900
H845        H  0.07430376  0.57791288  0.43363328     0.00600
H846        H  0.09819399  0.67962811  0.40575734     0.15200
H847        H  0.17266542  0.61230524  0.40659296     0.15000
N848        N  0.50020250  0.94594903  0.37446905    -0.36300
N849        N  0.45255570  0.50092319  0.36805848    -0.56900
N850        N  0.50202088  0.55324832  0.37359703    -0.36300
N851        N  0.05193914  0.50267598  0.37272045    -0.56900
C852        C  0.47304804  0.92743231  0.36767295     0.27200
C853        C  0.02448460  0.92710307  0.36484445     0.27200
C854        C  0.47511549  0.57076552  0.36421822     0.27200
C855        C  0.02676857  0.57162539  0.36544408     0.27200
C856        C  0.43061789  0.97196836  0.36513546     0.35900
C857        C  0.43197880  0.52752678  0.36647029     0.35900
C858        C  0.06594127  0.97235086  0.36088922     0.35900
C859        C  0.07108814  0.52997277  0.36864140     0.35900
C860        C  0.48266225  0.89569982  0.35887374    -0.21600
C861        C  0.01543795  0.89514521  0.35616044    -0.21600
C862        C  0.48498429  0.59994433  0.34976370    -0.21600
C863        C  0.01664034  0.60000380  0.34970661    -0.21600
C864        C  0.39851706  0.98269927  0.36005401    -0.22700
C865        C  0.39969067  0.51710929  0.36187232    -0.22700
C866        C  0.09629036  0.98324214  0.35003498    -0.22700
C867        C  0.10293105  0.52082083  0.36070966    -0.22700
C868        C  0.43984604  0.93832662  0.36950615    -0.18000
C869        C  0.05752891  0.93871019  0.36645392    -0.18000
C870        C  0.06004444  0.56304335  0.37147534    -0.18000
C871        C  0.44198350  0.56110943  0.36882688    -0.18000
H872        H  0.46666847  0.87567723  0.35094665     0.14900
H873        H  0.03182708  0.87537128  0.34858588     0.14900
H874        H  0.46910107  0.61858962  0.33912261     0.14900
H875        H  0.03237971  0.61895160  0.33947961     0.14900
H876        H  0.37689534  0.96719271  0.35623025     0.13200
H877        H  0.37829456  0.53279354  0.35756620     0.13200
H878        H  0.11663082  0.96789399  0.34201371     0.13200
H879        H  0.12288771  0.53724774  0.35373536     0.13200
H880        H  0.50031763  0.97011379  0.38308779     0.26400
H881        H  0.50189919  0.53119412  0.38638715     0.26400
C882        C  0.36739612  0.87236995  0.11952030     0.86800
C883        C  0.38956645  0.89742758  0.13735519    -0.53500
C884        C  0.40753229  0.91784304  0.11836988     0.09700
C885        C  0.40144809  0.91130642  0.08341874     0.20600
C886        C  0.34551705  0.89390494  0.09761282    -0.54200
C887        C  0.36350400  0.91459149  0.07879168     0.09800
C888        C  0.39115663  0.85349796  0.09790299    -0.53700
C889        C  0.40888542  0.87380033  0.07896476     0.10300
H890        H  0.39140566  0.89842472  0.16257194     0.14900
H891        H  0.41620112  0.92782131  0.06792187     0.00600
H892        H  0.31855337  0.89298966  0.09715013     0.15200
H893        H  0.39378258  0.82649036  0.09751091     0.15000
C894        C  0.13320970  0.87655540  0.12044298     0.86800
C895        C  0.11036322  0.89909333  0.14010853    -0.53500
C896        C  0.08995174  0.91892146  0.12272054     0.09700
C897        C  0.09405458  0.91401676  0.08731945     0.20600
C898        C  0.10976199  0.85660781  0.09888204    -0.54200
C899        C  0.08898323  0.87625800  0.08176375     0.09800
C900        C  0.15186959  0.90067302  0.09864637    -0.53700
C901        C  0.13128319  0.92021238  0.08114146     0.10300
H902        H  0.11009002  0.89904003  0.16539008     0.14900
H903        H  0.07726545  0.93001413  0.07308826     0.00600
H904        H  0.10981237  0.82955118  0.09704934     0.15200
H905        H  0.17876249  0.90235072  0.09733003     0.15000
N906        N  0.49288721  0.86822107  0.04984393    -0.36300
N907        N  0.44484739  0.86050582  0.00093785    -0.56900
N908        N  0.49979684  0.85725235  0.45422642    -0.36300
N909        N  0.05434962  0.86110738  0.00221601    -0.56900
C910        C  0.46632659  0.85701046  0.06563365     0.27200
C911        C  0.03266866  0.85506434  0.06734007     0.27200
C912        C  0.47278317  0.85217354  0.43608695     0.27200
C913        C  0.03104025  0.85210968  0.43432652     0.27200
C914        C  0.42421033  0.85676280  0.02525732     0.35900
C915        C  0.42851679  0.85584778  0.47538584     0.35900
C916        C  0.07507297  0.86147389  0.02699893     0.35900
C917        C  0.07612385  0.85503422  0.47307130     0.35900
C918        C  0.47622150  0.84029397  0.09222928    -0.21600
C919        C  0.02478108  0.83834208  0.09446013    -0.21600
C920        C  0.48245999  0.83960770  0.40756936    -0.21600
C921        C  0.02041937  0.83998886  0.40586566    -0.21600
C922        C  0.39330242  0.84636466  0.01543424    -0.22700
C923        C  0.39595337  0.85001460  0.48351687    -0.22700
C924        C  0.10761709  0.85908196  0.01748664    -0.22700
C925        C  0.10917070  0.85229065  0.48124713    -0.22700
C926        C  0.43349741  0.86145861  0.05624703    -0.18000
C927        C  0.06505968  0.86326617  0.05817090    -0.18000
C928        C  0.06431814  0.85807447  0.44239964    -0.18000
C929        C  0.43972792  0.85871903  0.44464111    -0.18000
H930        H  0.46048764  0.82787688  0.10901054     0.14900
H931        H  0.04193510  0.82837520  0.11158167     0.14900
H932        H  0.46645032  0.83201879  0.38854219     0.14900
H933        H  0.03583071  0.83211491  0.38664915     0.14900
H934        H  0.37281475  0.83864187  0.02993805     0.13200
H935        H  0.37566251  0.84409650  0.46790622     0.13200
H936        H  0.12925703  0.85609145  0.03221253     0.13200
H937        H  0.12995370  0.84948060  0.46564201     0.13200
H938        H  0.49263355  0.88289984  0.02981597     0.26400
H939        H  0.49995960  0.86817170  0.47612390     0.26400
C940        C  0.12142447  0.63275905  0.11797846     0.86800
C941        C  0.09562935  0.65083778  0.09717376    -0.53500
C942        C  0.07628317  0.62964457  0.07998318     0.09700
C943        C  0.08428816  0.59241864  0.08565800     0.20600
C944        C  0.10093533  0.60845448  0.13809211    -0.54200
C945        C  0.08144130  0.58729664  0.12122680     0.09800
C946        C  0.14120876  0.61044958  0.09538495    -0.53700
C947        C  0.12167335  0.58920155  0.07852570     0.10300
H948        H  0.09320521  0.67781441  0.09581535     0.14900
H949        H  0.06842053  0.57510467  0.07185508     0.00600
H950        H  0.10150557  0.60830964  0.16337724     0.15200
H951        H  0.16805872  0.61120855  0.09308362     0.15000
N952        N  0.44111938  0.00360393  0.12780718    -0.36300
N953        N  0.49226502  0.95343619  0.13521748    -0.56900
N954        N  0.05277066  0.00135611  0.13396242    -0.36300
N955        N  0.49314142  0.54908335  0.13270635    -0.56900
C956        C  0.42208609  0.97631826  0.13279533     0.27200
C957        C  0.42299970  0.52583755  0.12866365     0.27200
C958        C  0.07180277  0.97493094  0.14198973     0.27200
C959        C  0.06927172  0.52936514  0.13957067     0.27200
C960        C  0.46566543  0.93279503  0.13395193     0.35900
C961        C  0.03134893  0.92930463  0.13771624     0.35900
C962        C  0.46617003  0.56895860  0.13497032     0.35900
C963        C  0.02510754  0.57128695  0.14014428     0.35900
C964        C  0.39047157  0.98603381  0.14127978    -0.21600
C965        C  0.39118283  0.51609505  0.13635461    -0.21600
C966        C  0.10038905  0.98580987  0.15681672    -0.21600
C967        C  0.09917168  0.52053144  0.15321299    -0.21600
C968        C  0.47575441  0.90009840  0.13748110    -0.22700
C969        C  0.02316334  0.89610152  0.14105315    -0.22700
C970        C  0.47535279  0.60021178  0.14545132    -0.22700
C971        C  0.01456498  0.60255646  0.14914662    -0.22700
C972        C  0.43236284  0.94290605  0.12960481    -0.18000
C973        C  0.43352330  0.55932774  0.12719315    -0.18000
C974        C  0.05834617  0.56229438  0.13511350    -0.18000
C975        C  0.06400191  0.94138864  0.13581832    -0.18000
H976        H  0.37013227  0.96991097  0.14793908     0.14900
H977        H  0.37084442  0.53218932  0.14301104     0.14900
H978        H  0.11994787  0.97045222  0.16662107     0.14900
H979        H  0.11769211  0.53719973  0.16293653     0.14900
H980        H  0.45992883  0.87845396  0.13982915     0.13200
H981        H  0.04012942  0.87554644  0.14477641     0.13200
H982        H  0.45903266  0.62066868  0.15136930     0.13200
H983        H  0.03004557  0.62357458  0.15554523     0.13200
H984        H  0.46535738  0.00380606  0.11973892     0.26400
H985        H  0.03069060  0.00062499  0.12129090     0.26400
N986        N  0.13760959  0.95507286  0.00298431    -0.36300
N987        N  0.13890048  0.50437094  0.04623789    -0.56900
N988        N  0.13117351  0.55520575  0.99917704    -0.36300
N989        N  0.14306553  0.50766079  0.45727368    -0.56900
C990        C  0.14845803  0.93770827  0.02797705     0.27200
C991        C  0.14698251  0.93322022  0.47173509     0.27200
C992        C  0.13774496  0.57446299  0.02428534     0.27200
C993        C  0.14282364  0.57815249  0.47843127     0.27200
C994        C  0.14322202  0.97980753  0.06929436     0.35900
C995        C  0.13891907  0.53127880  0.06519314     0.35900
C996        C  0.14121978  0.97630480  0.43168353     0.35900
C997        C  0.14710592  0.53438089  0.43855489     0.35900
C998        C  0.16532099  0.90948325  0.01838768    -0.21600
C999        C  0.16433638  0.90469539  0.47981147    -0.21600
C1000       C  0.14771737  0.60585318  0.01473068    -0.21600
C1001       C  0.15285325  0.60958142  0.48778936    -0.21600
C1002       C  0.14633801  0.98945405  0.09995501    -0.22700
C1003       C  0.14437993  0.52163315  0.09559319    -0.22700
C1004       C  0.14753362  0.98656462  0.40168309    -0.22700
C1005       C  0.15731703  0.52440562  0.40941153    -0.22700
C1006       C  0.14276797  0.94646328  0.05912653    -0.18000
C1007       C  0.13943003  0.94292126  0.44113904    -0.18000
C1008       C  0.14105621  0.56758268  0.44731303    -0.18000
C1009       C  0.13438854  0.56453146  0.05551726    -0.18000
H1010       H  0.17753506  0.89117343  0.03303835     0.14900
H1011       H  0.17535261  0.88670013  0.46416041     0.14900
H1012       H  0.15562106  0.62637203  0.02939031     0.14900
H1013       H  0.16164516  0.62962436  0.47305706     0.14900
H1014       H  0.15111058  0.97333737  0.11965283     0.13200
H1015       H  0.14830296  0.53787900  0.11535359     0.13200
H1016       H  0.15410952  0.97091074  0.38217804     0.13200
H1017       H  0.16447890  0.54036008  0.39025640     0.13200
H1018       H  0.12297876  0.97649256  0.00341592     0.26400
H1019       H  0.12159748  0.53114515  0.99937824     0.26400
N1020       N  0.44193204  0.63638434  0.99599669    -0.36300
N1021       N  0.49954881  0.64510395  0.45527620    -0.56900
N1022       N  0.03936092  0.63731425  0.00072484    -0.36300
N1023       N  0.49125585  0.63580431  0.04444859    -0.56900
C1024       C  0.42946884  0.64781814  0.47644532     0.27200
C1025       C  0.42339205  0.64613263  0.02051827     0.27200
C1026       C  0.06539063  0.64893264  0.47757415     0.27200
C1027       C  0.05903807  0.64406643  0.02554802     0.27200
C1028       C  0.47277562  0.64458667  0.43606486     0.35900
C1029       C  0.02332482  0.64493729  0.43583066     0.35900
C1030       C  0.46434036  0.64144497  0.06230582     0.35900
C1031       C  0.01732667  0.64431576  0.06752608     0.35900
C1032       C  0.39979134  0.66243028  0.48509718    -0.21600
C1033       C  0.39567971  0.66332052  0.01017538    -0.21600
C1034       C  0.09595821  0.66058999  0.48751915    -0.21600
C1035       C  0.08949231  0.65549774  0.01537403    -0.21600
C1036       C  0.48278768  0.64788001  0.40559784    -0.22700
C1037       C  0.01382557  0.64804292  0.40510915    -0.22700
C1038       C  0.47370386  0.64940394  0.09222837    -0.22700
C1039       C  0.00864607  0.65329783  0.09737634    -0.22700
C1040       C  0.43928845  0.64195285  0.44545390    -0.18000
C1041       C  0.43135225  0.64024005  0.05188738    -0.18000
C1042       C  0.05023691  0.64048263  0.05712726    -0.18000
C1043       C  0.05647281  0.64353400  0.44622512    -0.18000
H1044       H  0.38084632  0.67251770  0.46979171     0.14900
H1045       H  0.37664368  0.67476679  0.02432749     0.14900
H1046       H  0.11650383  0.66829705  0.47304683     0.14900
H1047       H  0.10989982  0.66425034  0.02968665     0.14900
H1048       H  0.46683801  0.65100643  0.38549656     0.13200
H1049       H  0.02989963  0.65245967  0.38546256     0.13200
H1050       H  0.45764262  0.65761345  0.11081890     0.13200
H1051       H  0.02527012  0.66107781  0.11583572     0.13200
H1052       H  0.46322065  0.62167307  0.99663387     0.26400
H1053       H  0.01576425  0.62695068  0.00147673     0.26400
C1054       C  0.36417047  0.62515323  0.11488246     0.86800
C1055       C  0.38530702  0.64597346  0.09190899    -0.53500
C1056       C  0.40570006  0.62696633  0.07371665     0.09700
C1057       C  0.40274219  0.58911809  0.08007388     0.20600
C1058       C  0.34528843  0.59987184  0.09417978    -0.54200
C1059       C  0.36559113  0.58100447  0.07594799     0.09800
C1060       C  0.38937874  0.60381333  0.13343583    -0.53700
C1061       C  0.40950666  0.58477784  0.11518368     0.10300
H1062       H  0.38489414  0.67306565  0.09081511     0.14900
H1063       H  0.41921709  0.57364155  0.06520537     0.00600
H1064       H  0.31840398  0.59753346  0.09353734     0.15200
H1065       H  0.39038340  0.60296611  0.15869348     0.15000
N1066       N  0.35257993  0.99894024  0.04692525    -0.36300
N1067       N  0.35034073  0.94743385  0.99927487    -0.56900
N1068       N  0.36523109  0.99669541  0.45095179    -0.36300
N1069       N  0.35520770  0.54594503  0.99602793    -0.56900
C1070       C  0.34516305  0.97203917  0.06455330     0.27200
C1071       C  0.34699581  0.52346781  0.06148183     0.27200
C1072       C  0.35461845  0.97035774  0.43389685     0.27200
C1073       C  0.35866693  0.52292777  0.43571484     0.27200
C1074       C  0.34542470  0.92796028  0.02450071     0.35900
C1075       C  0.34943958  0.92689179  0.47347155     0.35900
C1076       C  0.35416210  0.56655210  0.02086893     0.35900
C1077       C  0.36082274  0.56690558  0.47551446     0.35900
C1078       C  0.33326545  0.98236892  0.09308318    -0.21600
C1079       C  0.33337423  0.51436494  0.08973759    -0.21600
C1080       C  0.34064106  0.98133832  0.40634679    -0.21600
C1081       C  0.34324937  0.51290730  0.40845433    -0.21600
C1082       C  0.33716257  0.89599016  0.01538072    -0.22700
C1083       C  0.33663674  0.89634593  0.48225035    -0.22700
C1084       C  0.35260400  0.59934662  0.01122414    -0.22700
C1085       C  0.35558106  0.59950351  0.48449994    -0.22700
C1086       C  0.34910287  0.93845434  0.05562223    -0.18000
C1087       C  0.35389836  0.55647966  0.05224057    -0.18000
C1088       C  0.36385565  0.55637637  0.44450041    -0.18000
C1089       C  0.35642792  0.93668730  0.44282054    -0.18000
H1090       H  0.32442330  0.96662800  0.11178558     0.14900
H1091       H  0.32480220  0.53086632  0.10794200     0.14900
H1092       H  0.32888759  0.96616015  0.38857837     0.14900
H1093       H  0.33221871  0.52881812  0.39085242     0.14900
H1094       H  0.32976484  0.87558593  0.03033230     0.13200
H1095       H  0.32841431  0.87637989  0.46709008     0.13200
H1096       H  0.34864407  0.62094398  0.02579900     0.13200
H1097       H  0.35106077  0.62063154  0.46940502     0.13200
H1098       H  0.36362055  0.99848548  0.02518754     0.26400
H1099       H  0.37782370  0.99567210  0.47213622     0.26400
C1100       C  0.32902696  0.85609052  0.34175415    -0.16200
C1101       C  0.35427983  0.84566171  0.35965221    -0.31300
H1102       H  0.32052255  0.88180228  0.34312778     0.12900
H1103       H  0.36146517  0.81948143  0.35905033     0.13400
C1104       C  0.35749256  0.66942770  0.34232936    -0.16200
C1105       C  0.34765676  0.64487461  0.36151946    -0.31300
H1106       H  0.38315104  0.67786669  0.34304943     0.12900
H1107       H  0.32162650  0.63758747  0.36148513     0.13400
C1108       C  0.15217224  0.85500976  0.35833497    -0.16200
C1109       C  0.14151105  0.82925604  0.34108112    -0.31300
H1110       H  0.17830983  0.86191110  0.35783877     0.12900
H1111       H  0.11578746  0.82113410  0.34234237     0.13400
C1112       C  0.32501516  0.85907420  0.15961183    -0.16200
C1113       C  0.34898527  0.84877336  0.14050621    -0.31300
H1114       H  0.31656500  0.88484248  0.15893160     0.12900
H1115       H  0.35605504  0.82254638  0.14059146     0.13400
C1116       C  0.14467784  0.65614590  0.36254856    -0.16200
C1117       C  0.16917959  0.64412348  0.34455460    -0.31300
H1118       H  0.13828485  0.68249983  0.36133042     0.12900
H1119       H  0.17666461  0.61813694  0.34658740     0.13400
C1120       C  0.14438980  0.82976488  0.15715685    -0.16200
C1121       C  0.15596071  0.85526919  0.14004771    -0.31300
H1122       H  0.11848919  0.82230831  0.15534414     0.12900
H1123       H  0.18222077  0.86161233  0.14107569     0.13400
C1124       C  0.35255949  0.66982137  0.15429470    -0.16200
C1125       C  0.34136021  0.64510007  0.13582277    -0.31300
H1126       H  0.37824289  0.67795563  0.15254054     0.12900
H1127       H  0.31527741  0.63810939  0.13685187     0.13400
C1128       C  0.14245187  0.65611960  0.13746508    -0.16200
C1129       C  0.16822922  0.64497039  0.15459866    -0.31300
H1130       H  0.13541880  0.68229901  0.13872191     0.12900
H1131       H  0.17618086  0.61913467  0.15255159     0.13400
N1132       N  0.19920530  0.80737032  0.71692163    -0.05900
N1133       N  0.19127080  0.82799622  0.69417778    -0.58000
N1134       N  0.17971235  0.78249033  0.78859226    -0.05500
N1135       N  0.15618890  0.78659365  0.80956693    -0.60100
N1136       N  0.20002518  0.80824183  0.78852156    -0.05100
N1137       N  0.19092610  0.83028004  0.80971549    -0.58000
N1138       N  0.17886538  0.78168781  0.71740208    -0.04800
N1139       N  0.15625296  0.78447781  0.69518518    -0.60500
C1140       C  0.16460933  0.81327925  0.68077676     0.96300
C1141       C  0.16373560  0.81626520  0.82279794     0.96100
N1142       N  0.21494883  0.68329002  0.78867474    -0.06000
N1143       N  0.20977089  0.65879962  0.80884389    -0.58600
N1144       N  0.18866483  0.70382441  0.71793509    -0.04200
N1145       N  0.16646267  0.69466036  0.69696687    -0.59800
N1146       N  0.21421493  0.68333375  0.71770007    -0.06100
N1147       N  0.20980321  0.65956425  0.69682456    -0.58800
N1148       N  0.18973773  0.70430316  0.78914609    -0.03800
N1149       N  0.16739067  0.69487862  0.80978953    -0.59900
Mn1150     Mn  0.18348530  0.74299385  0.75332200     1.18400
C1151       C  0.18022854  0.66661836  0.82212091     0.98400
C1152       C  0.18012586  0.66721649  0.68392738     0.99100
N1153       N  0.27775616  0.81837746  0.78639799    -0.06100
N1154       N  0.28226777  0.84302837  0.80631159    -0.62400
N1155       N  0.30161047  0.79827459  0.71471238    -0.04900
N1156       N  0.32239763  0.80796057  0.69276885    -0.63100
N1157       N  0.27589088  0.81850698  0.71576660    -0.05600
N1158       N  0.27873063  0.84247295  0.69480324    -0.62700
N1159       N  0.30361638  0.79823692  0.78621759    -0.04500
N1160       N  0.32617318  0.80864872  0.80640318    -0.63400
Mn1161     Mn  0.23805418  0.81383589  0.75204153     1.10700
C1162       C  0.31233177  0.83642342  0.81879745     0.99600
C1163       C  0.30763632  0.83538231  0.68041196     0.99700
N1164       N  0.29254449  0.69332148  0.71494795    -0.05600
N1165       N  0.30225048  0.67144668  0.69366868    -0.61000
N1166       N  0.31480215  0.71932322  0.78544832    -0.04900
N1167       N  0.34040710  0.71447526  0.80428070    -0.57700
N1168       N  0.29437956  0.69361292  0.78648959    -0.06200
N1169       N  0.30550269  0.67098134  0.80627575    -0.60500
N1170       N  0.31229492  0.71959394  0.71468636    -0.05200
N1171       N  0.33582261  0.71596787  0.69362993    -0.57700
Mn1172     Mn  0.25414870  0.68749305  0.75208891     1.20200
Mn1173     Mn  0.30885035  0.75898819  0.75031572     1.10100
Cl1174     Cl  0.24621972  0.75071943  0.75217698    -0.85700
C1175       C  0.32913333  0.68610772  0.68038163     0.96600
C1176       C  0.33403012  0.68445904  0.81732955     0.96400
C1177       C  0.37290974  0.87129516  0.87976008     0.86800
C1178       C  0.39591839  0.85189327  0.90187963    -0.53500
C1179       C  0.41345152  0.87189046  0.92141697     0.09700
C1180       C  0.40662774  0.90947089  0.91706720     0.20600
C1181       C  0.35086428  0.89290657  0.90120204    -0.54200
C1182       C  0.36857230  0.91317813  0.92067790     0.09800
C1183       C  0.39585010  0.89609332  0.86269964    -0.53700
C1184       C  0.41387567  0.91590615  0.88232929     0.10300
H1185       H  0.39817865  0.82485110  0.90219008     0.14900
H1186       H  0.42120903  0.92568148  0.93310366     0.00600
H1187       H  0.32388634  0.89234761  0.90089652     0.15200
H1188       H  0.39806506  0.89741987  0.83754246     0.15000
C1189       C  0.37034063  0.62138851  0.87591681     0.86800
C1190       C  0.39604349  0.60004626  0.85821134    -0.53500
C1191       C  0.41631078  0.58185482  0.87736851     0.09700
C1192       C  0.40884297  0.58681576  0.91226247     0.20600
C1193       C  0.35150417  0.59649824  0.89668866    -0.57900
C1194       C  0.37159603  0.57843483  0.91581152     0.09800
C1195       C  0.39084457  0.64304648  0.89867436    -0.53700
C1196       C  0.41127033  0.62486000  0.91752748     0.10300
H1197       H  0.39722576  0.59851860  0.83300261     0.14900
H1198       H  0.42525985  0.57198702  0.92791050     0.00600
H1199       H  0.32462471  0.59399732  0.89692096     0.15200
H1200       H  0.38996346  0.67014964  0.89926051     0.15000
C1201       C  0.12999612  0.87848334  0.88340964     0.86800
C1202       C  0.14863484  0.90232899  0.90569953    -0.53500
C1203       C  0.12812924  0.92108530  0.92380327     0.09700
C1204       C  0.09085939  0.91447439  0.91758990     0.20600
C1205       C  0.10706996  0.85761338  0.90461537    -0.54200
C1206       C  0.08621623  0.87656639  0.92223976     0.09800
C1207       C  0.10645896  0.90115855  0.86437136    -0.53700
C1208       C  0.08599233  0.92010030  0.88235553     0.10300
H1209       H  0.17552252  0.90436309  0.90693203     0.14900
H1210       H  0.07410892  0.92989104  0.93223454     0.00600
H1211       H  0.10749771  0.83052036  0.90580553     0.15200
H1212       H  0.10594232  0.90201349  0.83910150     0.15000
C1213       C  0.11463899  0.63134878  0.88009228     0.86800
C1214       C  0.09298685  0.60676384  0.86102883    -0.53500
C1215       C  0.07418620  0.58590724  0.87893145     0.09700
C1216       C  0.07924582  0.59128409  0.91426719     0.20600
C1217       C  0.08981374  0.64954600  0.90178670    -0.54200
C1218       C  0.07134713  0.62845325  0.91989989     0.09800
C1219       C  0.13555364  0.60930044  0.90215170    -0.53700
C1220       C  0.11705866  0.58821461  0.91992138     0.10300
H1221       H  0.09233834  0.60620773  0.83575841     0.14900
H1222       H  0.06427418  0.57404883  0.92887676     0.00600
H1223       H  0.08743816  0.67652557  0.90304112     0.15200
H1224       H  0.16249458  0.61016710  0.90354433     0.15000
N1225       N  0.49906406  0.95166531  0.87247883    -0.36300
N1226       N  0.44944845  0.49546361  0.86791694    -0.56900
N1227       N  0.50050218  0.54682362  0.86920711    -0.36300
N1228       N  0.04353751  0.49975802  0.86669911    -0.56900
C1229       C  0.47228171  0.93168346  0.86842778     0.27200
C1230       C  0.02731318  0.93199491  0.86845760     0.27200
C1231       C  0.47356019  0.56490063  0.86081165     0.27200
C1232       C  0.01658052  0.56821353  0.86421877     0.27200
C1233       C  0.42783763  0.97439416  0.86809077     0.35900
C1234       C  0.42961186  0.52258532  0.86576097     0.35900
C1235       C  0.06885933  0.97707709  0.86488488     0.35900
C1236       C  0.06175965  0.52750191  0.86161599     0.35900
C1237       C  0.48276254  0.90005852  0.86017090    -0.21600
C1238       C  0.01821430  0.90027630  0.85911358    -0.21600
C1239       C  0.48346798  0.59362725  0.84557580    -0.21600
C1240       C  0.00430395  0.59666986  0.85010628    -0.21600
C1241       C  0.39540264  0.98345571  0.86199623    -0.22700
C1242       C  0.39697664  0.51301837  0.86192203    -0.22700
C1243       C  0.09944544  0.98799300  0.85464444    -0.22700
C1244       C  0.09285408  0.51909902  0.85080392    -0.22700
C1245       C  0.43870262  0.94125699  0.87190980    -0.18000
C1246       C  0.06027388  0.94347228  0.87013793    -0.18000
C1247       C  0.05050528  0.56023831  0.86659077    -0.18000
C1248       C  0.44037027  0.55597460  0.86660493    -0.18000
H1249       H  0.46720405  0.87899382  0.85408312     0.14900
H1250       H  0.03452578  0.88071027  0.85094404     0.14900
H1251       H  0.46757909  0.61245758  0.83524504     0.14900
H1252       H  0.01852683  0.61603529  0.83867475     0.14900
H1253       H  0.37484163  0.96692620  0.85692352     0.13200
H1254       H  0.37603153  0.52915433  0.85718808     0.13200
H1255       H  0.12001452  0.97266306  0.84710288     0.13200
H1256       H  0.11198850  0.53602424  0.84287753     0.13200
H1257       H  0.49871725  0.97616735  0.88006332     0.26400
H1258       H  0.50056186  0.52485878  0.88212895     0.26400
C1259       C  0.36776093  0.87014639  0.61853798     0.86800
C1260       C  0.38893358  0.89549242  0.63705587    -0.53500
C1261       C  0.40782927  0.91567551  0.61867282     0.09700
C1262       C  0.40371561  0.90869185  0.58361093     0.20600
C1263       C  0.34708298  0.89142765  0.59545924    -0.54200
C1264       C  0.36606226  0.91192580  0.57733206     0.09800
C1265       C  0.39284256  0.85107226  0.59813285    -0.53700
C1266       C  0.41170438  0.87120614  0.57980766     0.10300
H1267       H  0.38979231  0.89654801  0.66231131     0.14900
H1268       H  0.41917629  0.92515949  0.56868127     0.00600
H1269       H  0.32013501  0.89095127  0.59414921     0.15200
H1270       H  0.39512541  0.82404271  0.59780256     0.15000
C1271       C  0.13495559  0.87298193  0.61690949     0.86800
C1272       C  0.11121723  0.89592635  0.63506243    -0.53500
C1273       C  0.09090397  0.91441335  0.61644121     0.09700
C1274       C  0.09610448  0.90808906  0.58139135     0.20600
C1275       C  0.11248569  0.85158554  0.59570692    -0.54200
C1276       C  0.09192523  0.87005971  0.57733598     0.09800
C1277       C  0.15384241  0.89641335  0.59460658    -0.53700
C1278       C  0.13337475  0.91469414  0.57577326     0.10300
H1279       H  0.11035340  0.89719187  0.66030786     0.14900
H1280       H  0.07937555  0.92310042  0.56619169     0.00600
H1281       H  0.11281602  0.82446235  0.59520645     0.15200
H1282       H  0.18072326  0.89868467  0.59403267     0.15000
N1283       N  0.49658638  0.85828795  0.55004102    -0.36300
N1284       N  0.44777391  0.85820250  0.50103486    -0.56900
N1285       N  0.49646323  0.86628594  0.95437065    -0.36300
N1286       N  0.05685341  0.85454087  0.49867282    -0.56900
C1287       C  0.46882421  0.85067574  0.56610086     0.27200
C1288       C  0.03574647  0.84901983  0.56396340     0.27200
C1289       C  0.47060513  0.85649578  0.93662010     0.27200
C1290       C  0.02964177  0.85610281  0.93704126     0.27200
C1291       C  0.42686225  0.85647927  0.52543142     0.35900
C1292       C  0.42616936  0.85513167  0.97540089     0.35900
C1293       C  0.07790968  0.85411645  0.52315521     0.35900
C1294       C  0.07397873  0.86094965  0.97684039     0.35900
C1295       C  0.47710634  0.83364701  0.59304452    -0.21600
C1296       C  0.02740436  0.83274539  0.59119887    -0.21600
C1297       C  0.48179806  0.84361757  0.90875860    -0.21600
C1298       C  0.01992294  0.84441920  0.90812990    -0.21600
C1299       C  0.39490920  0.85046144  0.51543262    -0.22700
C1300       C  0.39453496  0.84534401  0.98349884    -0.22700
C1301       C  0.11031739  0.85176963  0.51319122    -0.22700
C1302       C  0.10693648  0.85876457  0.98555389    -0.22700
C1303       C  0.43638804  0.85877925  0.55672456    -0.18000
C1304       C  0.06829661  0.85570023  0.55441243    -0.18000
C1305       C  0.06277523  0.86294451  0.94584407    -0.18000
C1306       C  0.43719487  0.85929922  0.94487114    -0.18000
H1307       H  0.46025771  0.82353287  0.61019543     0.14900
H1308       H  0.04427670  0.82182891  0.60806513     0.14900
H1309       H  0.46689605  0.83300126  0.89019882     0.14900
H1310       H  0.03596168  0.83764026  0.88901186     0.14900
H1311       H  0.37375771  0.84470696  0.52986387     0.13200
H1312       H  0.37503909  0.83700294  0.96792746     0.13200
H1313       H  0.13216585  0.84849467  0.52760667     0.13200
H1314       H  0.12800778  0.85571924  0.97032433     0.13200
H1315       H  0.49802768  0.87243365  0.52975434     0.26400
H1316       H  0.49500155  0.87848719  0.97564655     0.26400
C1317       C  0.11753045  0.63567331  0.62328861     0.86800
C1318       C  0.09374673  0.65563928  0.60222554    -0.53500
C1319       C  0.07534688  0.63606574  0.58290535     0.09700
C1320       C  0.08182492  0.59833951  0.58690178     0.20600
C1321       C  0.09526338  0.61071502  0.64095424    -0.54200
C1322       C  0.07642195  0.59109130  0.62187470     0.09800
C1323       C  0.13834062  0.61427602  0.60075507    -0.53700
C1324       C  0.11949138  0.59456812  0.58178350     0.10300
H1325       H  0.09214426  0.68272553  0.60201095     0.14900
H1326       H  0.06649577  0.58239326  0.57124854     0.00600
H1327       H  0.09411415  0.60914288  0.66616856     0.15200
H1328       H  0.16531856  0.61414634  0.60028428     0.15000
N1329       N  0.44369512  0.99982805  0.63127035    -0.36300
N1330       N  0.49379996  0.94776336  0.63205253    -0.56900
N1331       N  0.05399491  0.99741568  0.62636500    -0.36300
N1332       N  0.49879303  0.55251159  0.63626159    -0.56900
C1333       C  0.42419807  0.97288475  0.63606509     0.27200
C1334       C  0.42948547  0.52692961  0.63826810     0.27200
C1335       C  0.07306605  0.97088779  0.63394635     0.27200
C1336       C  0.06169215  0.53318006  0.63950376     0.27200
C1337       C  0.46643409  0.92821229  0.63254890     0.35900
C1338       C  0.03239820  0.92539491  0.63218746     0.35900
C1339       C  0.47146691  0.57162042  0.63993543     0.35900
C1340       C  0.01814322  0.57553855  0.63562811     0.35900
C1341       C  0.39350352  0.98305448  0.64682985    -0.21600
C1342       C  0.39892284  0.51602980  0.64866128    -0.21600
C1343       C  0.10214322  0.98147599  0.64803595    -0.21600
C1344       C  0.09022369  0.52467379  0.65570581    -0.21600
C1345       C  0.47537486  0.89514972  0.63575906    -0.22700
C1346       C  0.02434794  0.89225646  0.63630130    -0.22700
C1347       C  0.48032482  0.60347545  0.64890480    -0.22700
C1348       C  0.00750745  0.60737727  0.64247747    -0.22700
C1349       C  0.43334856  0.93949750  0.63054575    -0.18000
C1350       C  0.43863274  0.56079236  0.63506059    -0.18000
C1351       C  0.05158531  0.56603829  0.63299067    -0.18000
C1352       C  0.06485503  0.93743049  0.62829435    -0.18000
H1353       H  0.37304988  0.96720998  0.65376653     0.14900
H1354       H  0.37852710  0.53140632  0.65654647     0.14900
H1355       H  0.12168549  0.96595355  0.65762416     0.14900
H1356       H  0.10806627  0.54155156  0.66618647     0.14900
H1357       H  0.45885370  0.87422589  0.63930235     0.13200
H1358       H  0.04147418  0.87168208  0.63906244     0.13200
H1359       H  0.46376464  0.62344531  0.65562608     0.13200
H1360       H  0.02293125  0.62859359  0.64832696     0.13200
H1361       H  0.46733901  0.99970914  0.62180123     0.26400
H1362       H  0.03143161  0.99679588  0.61441520     0.26400
N1363       N  0.13851511  0.95028101  0.49757980    -0.36300
N1364       N  0.13671632  0.50912322  0.55175742    -0.56900
N1365       N  0.13503144  0.55949620  0.50353666    -0.36300
N1366       N  0.13558670  0.50377195  0.95156690    -0.56900
C1367       C  0.14942431  0.93222908  0.52214197     0.27200
C1368       C  0.14659615  0.93757328  0.97749422     0.27200
C1369       C  0.13941277  0.57901669  0.52884893     0.27200
C1370       C  0.13617168  0.57428712  0.97371127     0.27200
C1371       C  0.14660675  0.97396477  0.56364605     0.35900
C1372       C  0.13613684  0.53638505  0.57019874     0.35900
C1373       C  0.14137529  0.98029441  0.93712626     0.35900
C1374       C  0.13667769  0.53092587  0.93297679     0.35900
C1375       C  0.16582749  0.90403281  0.51191112    -0.21600
C1376       C  0.16416193  0.90941195  0.98626507    -0.21600
C1377       C  0.15075623  0.61011208  0.51982920    -0.21600
C1378       C  0.14668963  0.60575191  0.98261919    -0.21600
C1379       C  0.15150865  0.98347108  0.59413382    -0.22700
C1380       C  0.13895924  0.52725818  0.60104160    -0.22700
C1381       C  0.14892202  0.99061578  0.90741136    -0.22700
C1382       C  0.14374709  0.52163114  0.90283528    -0.22700
C1383       C  0.14484591  0.94073215  0.55348055    -0.18000
C1384       C  0.13969204  0.94680446  0.94660083    -0.18000
C1385       C  0.13131482  0.56401546  0.94270866    -0.18000
C1386       C  0.13317618  0.56950869  0.55978047    -0.18000
H1387       H  0.17817426  0.88542277  0.52612628     0.14900
H1388       H  0.17550151  0.89116843  0.97107066     0.14900
H1389       H  0.15764595  0.63066351  0.53487822     0.14900
H1390       H  0.15371982  0.62615651  0.96749576     0.14900
H1391       H  0.15672900  0.96730525  0.61371391     0.13200
H1392       H  0.14171305  0.54378325  0.62076978     0.13200
H1393       H  0.15646620  0.97497479  0.88820207     0.13200
H1394       H  0.14881351  0.53811524  0.88349840     0.13200
H1395       H  0.12416370  0.97186771  0.49843904     0.26400
H1396       H  0.12516174  0.53557177  0.50324185     0.26400
N1397       N  0.44709377  0.63939647  0.50217965    -0.36300
N1398       N  0.49568554  0.63884732  0.95017034    -0.56900
N1399       N  0.04557504  0.64376049  0.50244077    -0.36300
N1400       N  0.49759234  0.64403130  0.55055857    -0.56900
C1401       C  0.42577756  0.64643125  0.97009288     0.27200
C1402       C  0.42836064  0.64755186  0.52716327     0.27200
C1403       C  0.05727924  0.64368159  0.97481523     0.27200
C1404       C  0.06341158  0.65139894  0.52810684     0.27200
C1405       C  0.46937298  0.64021466  0.93060328     0.35900
C1406       C  0.01255061  0.64149735  0.93515794     0.35900
C1407       C  0.47035706  0.64691079  0.56869761     0.35900
C1408       C  0.01874816  0.65332248  0.56724007     0.35900
C1409       C  0.39716535  0.66346450  0.97805709    -0.21600
C1410       C  0.39909928  0.66227496  0.51726576    -0.21600
C1411       C  0.08838387  0.65524494  0.98325673    -0.21600
C1412       C  0.09473643  0.66207177  0.51960888    -0.21600
C1413       C  0.47994999  0.64257479  0.90023208    -0.22700
C1414       C  0.00132151  0.64563669  0.90504588    -0.22700
C1415       C  0.47945549  0.65602795  0.59845300    -0.22700
C1416       C  0.00790317  0.66420820  0.59593054    -0.22700
C1417       C  0.43584712  0.63948461  0.93958891    -0.18000
C1418       C  0.43730200  0.64239717  0.55859986    -0.18000
C1419       C  0.05213209  0.64910091  0.55896832    -0.18000
C1420       C  0.04640940  0.63924362  0.94378693    -0.18000
H1421       H  0.37934123  0.67480839  0.96233863     0.14900
H1422       H  0.37960595  0.67236520  0.53175685     0.14900
H1423       H  0.10779978  0.66369390  0.96781137     0.14900
H1424       H  0.11417111  0.67108196  0.53494924     0.14900
H1425       H  0.46451402  0.64654937  0.87990538     0.13200
H1426       H  0.01636463  0.65007144  0.88469585     0.13200
H1427       H  0.46298103  0.66274036  0.61724231     0.13200
H1428       H  0.02302539  0.67378717  0.61481617     0.13200
H1429       H  0.46963893  0.62670550  0.50257157     0.26400
H1430       H  0.02190660  0.63363975  0.50224629     0.26400
C1431       C  0.36807599  0.62510788  0.62000368     0.86800
C1432       C  0.39042123  0.64662415  0.59846952    -0.53500
C1433       C  0.41227013  0.62829680  0.58105200     0.09700
C1434       C  0.40937297  0.59023527  0.58680620     0.20600
C1435       C  0.35097075  0.59998303  0.59793531    -0.54200
C1436       C  0.37260529  0.58171859  0.58058857     0.09800
C1437       C  0.39238436  0.60370262  0.63961707    -0.53700
C1438       C  0.41387806  0.58516943  0.62220749     0.10300
H1439       H  0.38914938  0.67368171  0.59725778     0.14900
H1440       H  0.42688861  0.57519833  0.57261677     0.00600
H1441       H  0.32420875  0.59701000  0.59600999     0.15200
H1442       H  0.39201348  0.60267445  0.66487652     0.15000
N1443       N  0.35927711  0.99750595  0.54645319    -0.36300
N1444       N  0.35454383  0.94631099  0.49866602    -0.56900
N1445       N  0.35627653  0.99763996  0.95102863    -0.36300
N1446       N  0.36194019  0.54668839  0.50063160    -0.56900
C1447       C  0.35189363  0.97069768  0.56423085     0.27200
C1448       C  0.35875726  0.52291356  0.56625301     0.27200
C1449       C  0.34863775  0.97037690  0.93393757     0.27200
C1450       C  0.35151945  0.52190148  0.93156757     0.27200
C1451       C  0.34744675  0.92730995  0.52368096     0.35900
C1452       C  0.34789238  0.92717914  0.97423124     0.35900
C1453       C  0.35976001  0.56685711  0.52571329     0.35900
C1454       C  0.35671565  0.56594192  0.97075118     0.35900
C1455       C  0.34256181  0.98117074  0.59351150    -0.21600
C1456       C  0.34859980  0.51277205  0.59544733    -0.21600
C1457       C  0.33516354  0.97992419  0.90568085    -0.21600
C1458       C  0.33571441  0.51227085  0.90435053    -0.21600
C1459       C  0.33539051  0.89660672  0.51431783    -0.22700
C1460       C  0.33873916  0.89549299  0.98334212    -0.22700
C1461       C  0.35484718  0.59947022  0.51643603    -0.22700
C1462       C  0.35416159  0.59894305  0.97934286    -0.22700
C1463       C  0.35290826  0.93702920  0.55474497    -0.18000
C1464       C  0.36239323  0.55647646  0.55693327    -0.18000
C1465       C  0.35902960  0.55488629  0.93985720    -0.18000
C1466       C  0.35352951  0.93715729  0.94329475    -0.18000
H1467       H  0.33389218  0.96558895  0.61238709     0.14900
H1468       H  0.34062131  0.52862649  0.61436281     0.14900
H1469       H  0.32577400  0.96369528  0.88750450     0.14900
H1470       H  0.32575744  0.52836401  0.88633736     0.14900
H1471       H  0.32619295  0.87678801  0.52909136     0.13200
H1472       H  0.33257885  0.87470985  0.96831913     0.13200
H1473       H  0.34979100  0.62061821  0.53128972     0.13200
H1474       H  0.35141855  0.62007956  0.96392300     0.13200
H1475       H  0.36835434  0.99679047  0.52399240     0.26400
H1476       H  0.36826961  0.99780584  0.97250486     0.26400
C1477       C  0.32944951  0.85918855  0.84017486    -0.16200
C1478       C  0.35426771  0.84835150  0.85827540    -0.31300
H1479       H  0.32126832  0.88501671  0.84143604     0.12900
H1480       H  0.36105752  0.82205852  0.85775183     0.13400
C1481       C  0.35730497  0.66683522  0.83804587    -0.16200
C1482       C  0.34715655  0.64080474  0.85514258    -0.31300
H1483       H  0.38291354  0.67534172  0.83942242     0.12900
H1484       H  0.32110851  0.63357060  0.85442735     0.13400
C1485       C  0.15305383  0.85819026  0.86328993    -0.16200
C1486       C  0.14188189  0.83340798  0.84501490    -0.31300
H1487       H  0.17935805  0.86440515  0.86320516     0.12900
H1488       H  0.11593356  0.82596526  0.84594567     0.13400
C1489       C  0.32322850  0.85761246  0.65731805    -0.16200
C1490       C  0.34806152  0.84694220  0.63916242    -0.31300
H1491       H  0.31486117  0.88336779  0.65581988     0.12900
H1492       H  0.35521238  0.82076714  0.64008053     0.13400
C1493       C  0.13523706  0.65475115  0.85999427    -0.16200
C1494       C  0.16176552  0.64426097  0.84349473    -0.31300
H1495       H  0.12819199  0.68093789  0.85902073     0.12900
H1496       H  0.16981587  0.61843627  0.84531215     0.13400
C1497       C  0.14450141  0.82899607  0.65641430    -0.16200
C1498       C  0.15704798  0.85301205  0.63812444    -0.31300
H1499       H  0.11855773  0.82175413  0.65431743     0.12900
H1500       H  0.18332761  0.85920605  0.63946417     0.13400
C1501       C  0.35221351  0.66968870  0.65833493    -0.16200
C1502       C  0.34319035  0.64424984  0.63973204    -0.31300
H1503       H  0.37769604  0.67863004  0.65770907     0.12900
H1504       H  0.31732168  0.63640547  0.63941438     0.13400
C1505       C  0.13755023  0.65773736  0.64445345    -0.16200
C1506       C  0.16295415  0.64589836  0.66136068    -0.31300
H1507       H  0.13083382  0.68398186  0.64621369     0.12900
H1508       H  0.17089561  0.62010063  0.65889900     0.13400
N1509       N  0.70893104  0.31361908  0.21725940    -0.05900
N1510       N  0.70324945  0.33821837  0.19763724    -0.58000
N1511       N  0.68040453  0.28739914  0.28481331    -0.05500
N1512       N  0.65619833  0.29154258  0.30506957    -0.60100
N1513       N  0.70299729  0.31088806  0.28808484    -0.05100
N1514       N  0.69470694  0.33154388  0.31066706    -0.58000
N1515       N  0.68691453  0.28961476  0.21369038    -0.04800
N1516       N  0.66548600  0.29767869  0.19142554    -0.60500
C1517       C  0.67640181  0.32795707  0.18152135     0.96300
C1518       C  0.66560468  0.31898950  0.32112543     0.96100
N1519       N  0.70753415  0.18781316  0.28802339    -0.06000
N1520       N  0.69959756  0.16659562  0.31055670    -0.58600
N1521       N  0.69008537  0.20932934  0.21353612    -0.04200
N1522       N  0.66852820  0.20062647  0.19167934    -0.59800
N1523       N  0.71347239  0.18647203  0.21643830    -0.06100
N1524       N  0.70822998  0.16186790  0.19650032    -0.58800
N1525       N  0.68357468  0.20991237  0.28430467    -0.03800
N1526       N  0.65916201  0.20433502  0.30394986    -0.59900
Mn1527     Mn  0.68448457  0.24898306  0.24857973     1.18400
C1528       C  0.66939554  0.17754782  0.32035144     0.98400
C1529       C  0.68036371  0.17115543  0.18102704     0.99100
N1530       N  0.78128496  0.31570887  0.29297162    -0.06100
N1531       N  0.78651675  0.34014366  0.31295917    -0.62400
N1532       N  0.80968125  0.29484545  0.22261230    -0.04900
N1533       N  0.83252648  0.30314975  0.20195776    -0.63100
N1534       N  0.78563820  0.31708069  0.22263940    -0.05600
N1535       N  0.79151558  0.34097538  0.20233248    -0.62700
N1536       N  0.80566293  0.29388194  0.29410643    -0.04500
N1537       N  0.82778494  0.30275903  0.31536603    -0.63400
Mn1538     Mn  0.74460307  0.31483249  0.25548359     1.10700
C1539       C  0.81527839  0.33150796  0.32703369     0.99600
C1540       C  0.82055506  0.33187764  0.18943826     0.99700
N1541       N  0.79232822  0.19065607  0.22153720    -0.05600
N1542       N  0.80168888  0.16846170  0.20048817    -0.61000
N1543       N  0.80972031  0.21574277  0.29360535    -0.04900
N1544       N  0.83307317  0.21046774  0.31462769    -0.57700
N1545       N  0.78811716  0.19099658  0.29321506    -0.06200
N1546       N  0.79668546  0.16822052  0.31418498    -0.60500
N1547       N  0.81398210  0.21532801  0.22292657    -0.05200
N1548       N  0.83858894  0.21020652  0.20329755    -0.57700
Mn1549     Mn  0.75038014  0.18780854  0.25504314     1.20200
Mn1550     Mn  0.81047952  0.25491399  0.25820917     1.10100
Cl1551     Cl  0.74751835  0.25144899  0.25425979    -0.85700
C1552       C  0.83050798  0.18114513  0.18922898     0.96600
C1553       C  0.82459737  0.18105000  0.32752422     0.96400
C1554       C  0.87921779  0.36833628  0.38426871     0.86800
C1555       C  0.90441566  0.35104594  0.40596532    -0.53500
C1556       C  0.92260735  0.37283945  0.42338885     0.09700
C1557       C  0.91396626  0.40981269  0.41750852     0.20600
C1558       C  0.85796430  0.39047861  0.40590445    -0.54200
C1559       C  0.87615765  0.41252544  0.42310969     0.09800
C1560       C  0.90013411  0.39283914  0.36464179    -0.53700
C1561       C  0.91861224  0.41441967  0.38219609     0.10300
H1562       H  0.90729857  0.32413827  0.40779121     0.14900
H1563       H  0.92891055  0.42747155  0.43182576     0.00600
H1564       H  0.83107004  0.38897601  0.40736090     0.15200
H1565       H  0.90080853  0.39261732  0.33937139     0.15000
C1566       C  0.86240577  0.11760759  0.38569113     0.86800
C1567       C  0.88697298  0.09700534  0.36598525    -0.53500
C1568       C  0.90871002  0.07857431  0.38335336     0.09700
C1569       C  0.90376646  0.08242363  0.41877871     0.20600
C1570       C  0.84532621  0.09202970  0.40706154    -0.57900
C1571       C  0.86691798  0.07375440  0.42457224     0.09800
C1572       C  0.88453916  0.13883456  0.40775134    -0.53700
C1573       C  0.90647078  0.12024795  0.42493576     0.10300
H1574       H  0.88662620  0.09641050  0.34070783     0.14900
H1575       H  0.92135675  0.06723985  0.43293781     0.00600
H1576       H  0.81855527  0.08922938  0.40886145     0.15200
H1577       H  0.88345381  0.16588943  0.40913497     0.15000
C1578       C  0.63504362  0.37794329  0.38542156     0.86800
C1579       C  0.65426823  0.40175102  0.40725777    -0.53500
C1580       C  0.63423544  0.41969994  0.42648964     0.09700
C1581       C  0.59683207  0.41247014  0.42168634     0.20600
C1582       C  0.61364727  0.35619546  0.40720896    -0.54200
C1583       C  0.59342301  0.37443377  0.42605760     0.09800
C1584       C  0.61021413  0.40037950  0.36772471    -0.53700
C1585       C  0.59004305  0.41838878  0.38670625     0.10300
H1586       H  0.68114969  0.40418531  0.40753515     0.14900
H1587       H  0.58044875  0.42730103  0.43719137     0.00600
H1588       H  0.61417082  0.32907620  0.40747243     0.15200
H1589       H  0.60888512  0.40204197  0.34250693     0.15000
C1590       C  0.63438381  0.12004646  0.38521612     0.86800
C1591       C  0.60989772  0.09801038  0.36657195    -0.53500
C1592       C  0.58858753  0.08025242  0.38471222     0.09700
C1593       C  0.59391274  0.08595675  0.41994315     0.20600
C1594       C  0.61219332  0.14207569  0.40632324    -0.54200
C1595       C  0.59093637  0.12402780  0.42461909     0.09800
C1596       C  0.65207405  0.09582873  0.40777819    -0.53700
C1597       C  0.63088521  0.07798905  0.42601690     0.10300
H1598       H  0.60979084  0.09623858  0.34134017     0.14900
H1599       H  0.57667097  0.07122853  0.43472783     0.00600
H1600       H  0.61300134  0.16918200  0.40651278     0.15200
H1601       H  0.67887783  0.09301369  0.40923109     0.15000
N1602       N  0.00241930  0.45007055  0.37371589    -0.36300
N1603       N  0.94451103  0.99426345  0.36862948    -0.56900
N1604       N  0.99368499  0.04812820  0.37138457    -0.36300
N1605       N  0.55249590  0.99602252  0.37356849    -0.56900
C1606       C  0.97611594  0.43028607  0.36710501     0.27200
C1607       C  0.53162900  0.43186298  0.37062204     0.27200
C1608       C  0.96567112  0.06508096  0.36412815     0.27200
C1609       C  0.53120762  0.06625458  0.36581986     0.27200
C1610       C  0.93142891  0.47259449  0.36580210     0.35900
C1611       C  0.92351743  0.02054710  0.36834699     0.35900
C1612       C  0.57414858  0.47597382  0.37074316     0.35900
C1613       C  0.57302094  0.02225301  0.36941444     0.35900
C1614       C  0.98716622  0.39910050  0.35808982    -0.21600
C1615       C  0.52273955  0.40032421  0.36060162    -0.21600
C1616       C  0.97382614  0.09508899  0.35018347    -0.21600
C1617       C  0.52307244  0.09562031  0.35070632    -0.21600
C1618       C  0.89876491  0.48160999  0.36094258    -0.22700
C1619       C  0.89109257  0.00963213  0.36608356    -0.22700
C1620       C  0.60586237  0.48624758  0.36342230    -0.22700
C1621       C  0.60425120  0.01148655  0.36114428    -0.22700
C1622       C  0.94244712  0.43948075  0.36956951    -0.18000
C1623       C  0.56459354  0.44262391  0.37531001    -0.18000
C1624       C  0.56374826  0.05580427  0.37251257    -0.18000
C1625       C  0.93304096  0.05430913  0.37025417    -0.18000
H1626       H  0.97205889  0.37828776  0.35039992     0.14900
H1627       H  0.53930645  0.38026361  0.35410910     0.14900
H1628       H  0.95678004  0.11352982  0.34091371     0.14900
H1629       H  0.54009628  0.11404041  0.34150171     0.14900
H1630       H  0.87805975  0.46500388  0.35668216     0.13200
H1631       H  0.86919634  0.02497626  0.36324940     0.13200
H1632       H  0.62679218  0.47050912  0.35777508     0.13200
H1633       H  0.62502715  0.02684573  0.35415786     0.13200
H1634       H  0.00143781  0.47414335  0.38250901     0.26400
H1635       H  0.99494232  0.02553935  0.38325105     0.26400
C1636       C  0.87970341  0.36447177  0.12631236     0.86800
C1637       C  0.90182900  0.39017065  0.14341221    -0.53500
C1638       C  0.91895094  0.41069779  0.12388103     0.09700
C1639       C  0.91249436  0.40333348  0.08910766     0.20600
C1640       C  0.85715679  0.38540042  0.10448062    -0.54200
C1641       C  0.87449727  0.40606014  0.08516164     0.09800
C1642       C  0.90324431  0.34553364  0.10449788    -0.53700
C1643       C  0.92031077  0.36579004  0.08487881     0.10300
H1644       H  0.90407961  0.39165213  0.16858073     0.14900
H1645       H  0.92664752  0.41986216  0.07313962     0.00600
H1646       H  0.83019256  0.38437280  0.10465227     0.15200
H1647       H  0.90589387  0.31853295  0.10423824     0.15000
C1648       C  0.61519738  0.36558106  0.12198341     0.86800
C1649       C  0.59451572  0.39079852  0.14108980    -0.53500
C1650       C  0.57727068  0.41303814  0.12311759     0.09700
C1651       C  0.58221166  0.40775841  0.08791560     0.20600
C1652       C  0.59014317  0.34883828  0.09988996    -0.54200
C1653       C  0.57283728  0.37088984  0.08204642     0.09800
C1654       C  0.63747884  0.38718016  0.10068822    -0.53700
C1655       C  0.62009346  0.40955408  0.08303592     0.10300
H1656       H  0.59277016  0.39029669  0.16630487     0.14900
H1657       H  0.56796579  0.42563153  0.07320516     0.00600
H1658       H  0.58689471  0.32197855  0.09793633     0.15200
H1659       H  0.66438846  0.38534138  0.10005841     0.15000
N1660       N  0.00290687  0.36071910  0.05145765    -0.36300
N1661       N  0.94988276  0.35233787  0.00445673    -0.56900
N1662       N  0.00732005  0.36490775  0.45717720    -0.36300
N1663       N  0.54080025  0.35826507  0.00107745    -0.56900
C1664       C  0.97727532  0.34966345  0.06867633     0.27200
C1665       C  0.51614147  0.35326493  0.06475233     0.27200
C1666       C  0.98069643  0.35852036  0.43886098     0.27200
C1667       C  0.53654381  0.35533100  0.43859072     0.27200
C1668       C  0.93193765  0.34764093  0.03048372     0.35900
C1669       C  0.93638976  0.35966058  0.47812287     0.35900
C1670       C  0.56045110  0.35851533  0.02659988     0.35900
C1671       C  0.57961407  0.35702854  0.48003078     0.35900
C1672       C  0.98897238  0.33417926  0.09532658    -0.21600
C1673       C  0.50619172  0.33677637  0.09139496    -0.21600
C1674       C  0.99112437  0.34691281  0.41026314    -0.21600
C1675       C  0.52745072  0.34401764  0.40936244    -0.21600
C1676       C  0.90053393  0.33630687  0.02299523    -0.22700
C1677       C  0.90446900  0.35121098  0.48649263    -0.22700
C1678       C  0.59321014  0.35418928  0.01855192    -0.22700
C1679       C  0.61214946  0.35342932  0.48972008    -0.22700
C1680       C  0.94365581  0.35334901  0.06085739    -0.18000
C1681       C  0.54910696  0.36068453  0.05723679    -0.18000
C1682       C  0.56953470  0.36002109  0.44868113    -0.18000
C1683       C  0.94728021  0.36263188  0.44734693    -0.18000
H1684       H  0.97435866  0.32213081  0.11319532     0.14900
H1685       H  0.52192594  0.32643175  0.10947322     0.14900
H1686       H  0.97560024  0.33840021  0.39122876     0.14900
H1687       H  0.54388367  0.33579871  0.39103497     0.14900
H1688       H  0.88154215  0.32819862  0.03904222     0.13200
H1689       H  0.88463597  0.34327306  0.47113774     0.13200
H1690       H  0.61385397  0.35007409  0.03424351     0.13200
H1691       H  0.63358577  0.34973050  0.47506254     0.13200
H1692       H  0.00096298  0.37456361  0.03102835     0.26400
H1693       H  0.00699674  0.37535838  0.47925151     0.26400
C1694       C  0.61545764  0.13562702  0.12282615     0.86800
C1695       C  0.58982392  0.15360733  0.10178616    -0.53500
C1696       C  0.57089300  0.13243163  0.08422341     0.09700
C1697       C  0.57919810  0.09521069  0.08968388     0.20600
C1698       C  0.59479701  0.11091032  0.14249918    -0.54200
C1699       C  0.57571910  0.08969979  0.12510151     0.09800
C1700       C  0.63578154  0.11360380  0.10040029    -0.53700
C1701       C  0.61674694  0.09218402  0.08324401     0.10300
H1702       H  0.58750916  0.18058470  0.10023773     0.14900
H1703       H  0.56372892  0.07791994  0.07546341     0.00600
H1704       H  0.59461280  0.11085162  0.16777825     0.15200
H1705       H  0.66268493  0.11440604  0.09868497     0.15000
N1706       N  0.95001268  0.49760413  0.13397478    -0.36300
N1707       N  0.00312681  0.44875985  0.13487582    -0.56900
N1708       N  0.54432891  0.49784199  0.13248215    -0.36300
N1709       N  0.99926285  0.04983045  0.13833733    -0.56900
C1710       C  0.93239159  0.46948700  0.13960366     0.27200
C1711       C  0.93044207  0.02307728  0.14043946     0.27200
C1712       C  0.56160974  0.47039946  0.14107958     0.27200
C1713       C  0.56052911  0.03227802  0.14373336     0.27200
C1714       C  0.97717954  0.42739168  0.13605042     0.35900
C1715       C  0.51865608  0.42695650  0.13506568     0.35900
C1716       C  0.97168890  0.06861240  0.14189794     0.35900
C1717       C  0.51766766  0.07540773  0.13928653     0.35900
C1718       C  0.90145044  0.47793236  0.15096233    -0.21600
C1719       C  0.90014216  0.01146076  0.15083857    -0.21600
C1720       C  0.59021562  0.47983269  0.15674959    -0.21600
C1721       C  0.58870908  0.02269334  0.15996344    -0.21600
C1722       C  0.98844570  0.39503564  0.13921988    -0.22700
C1723       C  0.50838764  0.39430330  0.13837877    -0.22700
C1724       C  0.98024534  0.10086405  0.14983168    -0.22700
C1725       C  0.50714538  0.10730991  0.14601407    -0.22700
C1726       C  0.94341022  0.43650076  0.13438987    -0.18000
C1727       C  0.93891543  0.05715250  0.13775394    -0.18000
C1728       C  0.55106483  0.06551518  0.13799698    -0.18000
C1729       C  0.55210428  0.43718347  0.13500470    -0.18000
H1730       H  0.88227022  0.46095662  0.15870258     0.14900
H1731       H  0.87956766  0.02632960  0.15913585     0.14900
H1732       H  0.60853406  0.46348134  0.16724141     0.14900
H1733       H  0.60687228  0.03891838  0.17086924     0.14900
H1734       H  0.97349691  0.37303082  0.14318542     0.13200
H1735       H  0.52388005  0.37287405  0.14331185     0.13200
H1736       H  0.96352755  0.12077921  0.15631761     0.13200
H1737       H  0.52251210  0.12814513  0.15313392     0.13200
H1738       H  0.97335169  0.49881507  0.12395148     0.26400
H1739       H  0.52268167  0.49821231  0.11921708     0.26400
N1740       N  0.63276137  0.44209193  0.00521594    -0.36300
N1741       N  0.63368127  0.00627308  0.05236833    -0.56900
N1742       N  0.63052017  0.05742083  0.00502343    -0.36300
N1743       N  0.64166595  0.99271790  0.45878683    -0.56900
C1744       C  0.64196853  0.42492545  0.03086428     0.27200
C1745       C  0.65085315  0.43526061  0.48078971     0.27200
C1746       C  0.63642049  0.07645296  0.03036763     0.27200
C1747       C  0.64393293  0.06282747  0.48103039     0.27200
C1748       C  0.63657415  0.46820440  0.07116988     0.35900
C1749       C  0.63229998  0.03332434  0.07118293     0.35900
C1750       C  0.65013817  0.47801907  0.44020129     0.35900
C1751       C  0.64657889  0.01961013  0.44045489     0.35900
C1752       C  0.65795056  0.39576748  0.02236530    -0.21600
C1753       C  0.66677383  0.40645621  0.49035720    -0.21600
C1754       C  0.64833823  0.10736845  0.02134568    -0.21600
C1755       C  0.65464922  0.09390688  0.49070646    -0.21600
C1756       C  0.63885678  0.47839730  0.10173431    -0.22700
C1757       C  0.63392518  0.02360545  0.10191320    -0.22700
C1758       C  0.66100586  0.48809425  0.41130363    -0.22700
C1759       C  0.65673852  0.00973355  0.41125852    -0.22700
C1760       C  0.63519834  0.43458030  0.06158887    -0.18000
C1761       C  0.64633963  0.44474078  0.44958320    -0.18000
C1762       C  0.64159209  0.05289007  0.44970363    -0.18000
C1763       C  0.63019707  0.06681909  0.06123037    -0.18000
H1764       H  0.66849477  0.37710347  0.03773993     0.14900
H1765       H  0.67831897  0.38786634  0.47567029     0.14900
H1766       H  0.65604974  0.12767436  0.03634476     0.14900
H1767       H  0.66354237  0.11402147  0.47612906     0.14900
H1768       H  0.64212258  0.46249766  0.12185266     0.13200
H1769       H  0.63631472  0.03985880  0.12185795     0.13200
H1770       H  0.66998287  0.47233470  0.39271508     0.13200
H1771       H  0.66467784  0.02569349  0.39239864     0.13200
H1772       H  0.61888800  0.46400816  0.00482467     0.26400
H1773       H  0.61976234  0.03384443  0.00473843     0.26400
N1774       N  0.93810638  0.13762250  0.00630516    -0.36300
N1775       N  0.99255232  0.13787755  0.45365415    -0.56900
N1776       N  0.53863136  0.13959472  0.00315283    -0.36300
N1777       N  0.99061443  0.14013793  0.05310195    -0.56900
C1778       C  0.92480443  0.13830418  0.47805342     0.27200
C1779       C  0.92044505  0.14521229  0.03207411     0.27200
C1780       C  0.57498809  0.14291721  0.47803352     0.27200
C1781       C  0.55726605  0.14562750  0.02884347     0.27200
C1782       C  0.96497575  0.13808037  0.43556114     0.35900
C1783       C  0.53265996  0.14128278  0.43575902     0.35900
C1784       C  0.96415963  0.14452343  0.07185523     0.35900
C1785       C  0.51316067  0.14952691  0.06797656     0.35900
C1786       C  0.89583603  0.15243467  0.48897112    -0.21600
C1787       C  0.89090035  0.16035439  0.02355797    -0.21600
C1788       C  0.60600327  0.15320049  0.48819140    -0.21600
C1789       C  0.58876117  0.15551842  0.02021671    -0.21600
C1790       C  0.97322592  0.14378808  0.40495705    -0.22700
C1791       C  0.52369396  0.14512463  0.40493185    -0.22700
C1792       C  0.97437171  0.15504017  0.10089276    -0.22700
C1793       C  0.50261652  0.16065651  0.09664237    -0.22700
C1794       C  0.93237394  0.13404187  0.44646786    -0.18000
C1795       C  0.93086953  0.13963460  0.06299977    -0.18000
C1796       C  0.54645923  0.14338867  0.05986984    -0.18000
C1797       C  0.56581178  0.13840042  0.44648727    -0.18000
H1798       H  0.87576877  0.16291174  0.47523452     0.14900
H1799       H  0.87207294  0.17017313  0.03895804     0.14900
H1800       H  0.62673057  0.16068362  0.47383247     0.14900
H1801       H  0.60865863  0.16359598  0.03547514     0.14900
H1802       H  0.95623043  0.14776039  0.38574322     0.13200
H1803       H  0.54027762  0.14905908  0.38556038     0.13200
H1804       H  0.95867138  0.16263302  0.11998823     0.13200
H1805       H  0.51806520  0.16853864  0.11594505     0.13200
H1806       H  0.96058821  0.12487863  0.00566846     0.26400
H1807       H  0.51456364  0.13041669  0.00249206     0.26400
C1808       C  0.86633754  0.12009666  0.12770936     0.86800
C1809       C  0.88654947  0.14229764  0.10508041    -0.53500
C1810       C  0.90740733  0.12464614  0.08619328     0.09700
C1811       C  0.90584249  0.08649106  0.09170437     0.20600
C1812       C  0.84819986  0.09476685  0.10656576    -0.54200
C1813       C  0.86894413  0.07714385  0.08774431     0.09800
C1814       C  0.89244664  0.09913415  0.14559933    -0.53700
C1815       C  0.91301604  0.08126482  0.12668347     0.10300
H1816       H  0.88476998  0.16934910  0.10433290     0.14900
H1817       H  0.92265440  0.07203233  0.07629900     0.00600
H1818       H  0.82142712  0.09132187  0.10620945     0.15200
H1819       H  0.89391438  0.09787555  0.17082328     0.15000
N1820       N  0.86047252  0.49096821  0.05457895    -0.36300
N1821       N  0.85656711  0.44029211  0.00680195    -0.56900
N1822       N  0.86320075  0.49788460  0.45251774    -0.36300
N1823       N  0.85576878  0.04329657  0.00762151    -0.56900
C1824       C  0.85556623  0.46360844  0.07241287     0.27200
C1825       C  0.85429964  0.01856360  0.07330278     0.27200
C1826       C  0.85637087  0.47006920  0.43582773     0.27200
C1827       C  0.85105225  0.01609014  0.44058705     0.27200
C1828       C  0.85410813  0.42014241  0.03185507     0.35900
C1829       C  0.85515483  0.42708043  0.47631557     0.35900
C1830       C  0.85466564  0.06306195  0.03306359     0.35900
C1831       C  0.85408658  0.06046917  0.47994133     0.35900
C1832       C  0.84604396  0.47316425  0.10192078    -0.21600
C1833       C  0.84404865  0.00804105  0.10238124    -0.21600
C1834       C  0.84186782  0.47871531  0.40777071    -0.21600
C1835       C  0.83463993  0.00575835  0.41392677    -0.21600
C1836       C  0.84619356  0.38809410  0.02271200    -0.22700
C1837       C  0.84413903  0.39586035  0.48516600    -0.22700
C1838       C  0.84969600  0.09584064  0.02433601    -0.22700
C1839       C  0.84823787  0.09301904  0.48878380    -0.22700
C1840       C  0.85934069  0.43023464  0.06281825    -0.18000
C1841       C  0.85774594  0.05223825  0.06417483    -0.18000
C1842       C  0.85645023  0.04952705  0.44893332    -0.18000
C1843       C  0.86180676  0.43701176  0.44559456    -0.18000
H1844       H  0.83917671  0.45690103  0.12095985     0.14900
H1845       H  0.83587007  0.02361575  0.12143279     0.14900
H1846       H  0.83233454  0.46185100  0.39017579     0.14900
H1847       H  0.82270765  0.02143026  0.39664883     0.14900
H1848       H  0.84024921  0.36725680  0.03770014     0.13200
H1849       H  0.83728195  0.37535242  0.47005594     0.13200
H1850       H  0.84500572  0.11668666  0.03965385     0.13200
H1851       H  0.84282335  0.11389125  0.47361485     0.13200
H1852       H  0.86930141  0.49129046  0.03196761     0.26400
H1853       H  0.87527296  0.49879577  0.47396385     0.26400
C1854       C  0.83341103  0.35415494  0.34785733    -0.16200
C1855       C  0.85940779  0.34400243  0.36495281    -0.31300
H1856       H  0.82551161  0.38009268  0.34874909     0.12900
H1857       H  0.86649296  0.31779330  0.36489238     0.13400
C1858       C  0.84722166  0.16311250  0.34879888    -0.16200
C1859       C  0.83770875  0.13712143  0.36620201    -0.31300
H1860       H  0.87287500  0.17154462  0.34996849     0.12900
H1861       H  0.81176521  0.12953051  0.36598796     0.13400
C1862       C  0.65716193  0.35851538  0.36389453    -0.16200
C1863       C  0.64481586  0.33515326  0.34468986    -0.31300
H1864       H  0.68353487  0.36438761  0.36337224     0.12900
H1865       H  0.61869411  0.32836867  0.34582298     0.13400
C1866       C  0.83807644  0.35323042  0.16716207    -0.16200
C1867       C  0.86144055  0.34148814  0.14809604    -0.31300
H1868       H  0.83105894  0.37941894  0.16597949     0.12900
H1869       H  0.86748250  0.31501520  0.14837373     0.13400
C1870       C  0.65842073  0.13877916  0.36440730    -0.16200
C1871       C  0.64762620  0.16100032  0.34330582    -0.31300
H1872       H  0.68479848  0.13312343  0.36583046     0.12900
H1873       H  0.62136045  0.16731206  0.34264189     0.13400
C1874       C  0.65860912  0.35051899  0.16031893    -0.16200
C1875       C  0.63382497  0.34060617  0.14171765    -0.31300
H1876       H  0.66600619  0.37664120  0.16034626     0.12900
H1877       H  0.62692717  0.31435659  0.14087839     0.13400
C1878       C  0.85289828  0.16395121  0.16725681    -0.16200
C1879       C  0.84269684  0.13885418  0.14882730    -0.31300
H1880       H  0.87858090  0.17224445  0.16616347     0.12900
H1881       H  0.81669003  0.13150401  0.14917296     0.13400
C1882       C  0.63619670  0.15941150  0.14228356    -0.16200
C1883       C  0.66218518  0.14886935  0.15946810    -0.31300
H1884       H  0.62942213  0.18569080  0.14265009     0.12900
H1885       H  0.66972232  0.12283736  0.15840249     0.13400
N1886       N  0.70546737  0.30991466  0.72377466    -0.05900
N1887       N  0.69664587  0.33113365  0.70155593    -0.58000
N1888       N  0.69446543  0.28745071  0.79814299    -0.05500
N1889       N  0.67408331  0.29662117  0.82057004    -0.60100
N1890       N  0.71779943  0.31010670  0.79434276    -0.05100
N1891       N  0.71365151  0.33516559  0.81385005    -0.58000
N1892       N  0.68204435  0.28735725  0.72775279    -0.04800
N1893       N  0.65681485  0.29286879  0.70865341    -0.60500
C1894       C  0.66627679  0.32004903  0.69229065     0.96300
C1895       C  0.68664125  0.32624784  0.83030452     0.96100
N1896       N  0.71496182  0.18452707  0.79421433    -0.06000
N1897       N  0.71044542  0.16019517  0.81440878    -0.58600
N1898       N  0.68020433  0.20879006  0.72751453    -0.04200
N1899       N  0.65490044  0.20472408  0.70816540    -0.59800
N1900       N  0.70256846  0.18520710  0.72341470    -0.06100
N1901       N  0.69293409  0.16474406  0.70087275    -0.58800
N1902       N  0.69265644  0.20814803  0.79799779    -0.03800
N1903       N  0.67242633  0.20030807  0.82096535    -0.59900
Mn1904     Mn  0.68660008  0.24791459  0.76317649     1.18400
C1905       C  0.68413823  0.17050524  0.83110012     0.98400
C1906       C  0.66318804  0.17736507  0.69152417     0.99100
N1907       N  0.79588520  0.30683714  0.78418434    -0.06100
N1908       N  0.80523360  0.32597337  0.80784046    -0.62400
N1909       N  0.80569882  0.28616988  0.70860441    -0.04900
N1910       N  0.82594462  0.29595533  0.68607142    -0.63100
N1911       N  0.78299440  0.30930729  0.71338082    -0.05600
N1912       N  0.78702335  0.33472910  0.69429428    -0.62700
N1913       N  0.81829722  0.28348677  0.77928126    -0.04500
N1914       N  0.84321795  0.28627548  0.79924276    -0.63400
Mn1915     Mn  0.75062599  0.30977844  0.75398787     1.10700
C1916       C  0.83477130  0.31267431  0.81704352     0.99600
C1917       C  0.81355849  0.32613849  0.67718235     0.99700
N1918       N  0.78040543  0.18153547  0.71367402    -0.05600
N1919       N  0.78485095  0.15516040  0.69580732    -0.61000
N1920       N  0.81601714  0.20577821  0.77963802    -0.04900
N1921       N  0.84036166  0.20167301  0.80003520    -0.57700
N1922       N  0.79236456  0.18360637  0.78430455    -0.06200
N1923       N  0.80020723  0.16402382  0.80812852    -0.60500
N1924       N  0.80382554  0.20398394  0.70894385    -0.05200
N1925       N  0.82474502  0.19295030  0.68760366    -0.57700
Mn1926     Mn  0.74752620  0.18296952  0.75387553     1.20200
Mn1927     Mn  0.81180495  0.24484950  0.74334198     1.10100
Cl1928     Cl  0.74918784  0.24638352  0.75333594    -0.85700
C1929       C  0.81226436  0.16265017  0.67943340     0.96600
C1930       C  0.83021850  0.17571270  0.81774736     0.96400
C1931       C  0.86852569  0.36593166  0.88580094     0.86800
C1932       C  0.89136120  0.34487417  0.90750570    -0.53500
C1933       C  0.91116822  0.36397395  0.92662479     0.09700
C1934       C  0.90595269  0.40184236  0.92225643     0.20600
C1935       C  0.84889173  0.38883871  0.90790612    -0.54200
C1936       C  0.86839344  0.40765941  0.92694370     0.09800
C1937       C  0.89233619  0.38950581  0.86827504    -0.53700
C1938       C  0.91211108  0.40814319  0.88738078     0.10300
H1939       H  0.89217856  0.31777480  0.90733643     0.14900
H1940       H  0.92183420  0.41740655  0.93776631     0.00600
H1941       H  0.82193590  0.38999974  0.90858957     0.15200
H1942       H  0.89301192  0.39173833  0.84308524     0.15000
C1943       C  0.86282442  0.12092555  0.88631755     0.86800
C1944       C  0.88939027  0.10018420  0.86928358    -0.53500
C1945       C  0.91039733  0.08342711  0.88867633     0.09700
C1946       C  0.90270394  0.08865762  0.92348654     0.20600
C1947       C  0.84495169  0.09565028  0.90777384    -0.57900
C1948       C  0.86588056  0.07874562  0.92734421     0.09800
C1949       C  0.88262044  0.14389279  0.90878629    -0.53700
C1950       C  0.90365445  0.12681560  0.92826535     0.10300
H1951       H  0.89083872  0.09816806  0.84410986     0.14900
H1952       H  0.91978905  0.07475619  0.93925153     0.00600
H1953       H  0.81824140  0.09178713  0.90774908     0.15200
H1954       H  0.88092609  0.17095635  0.90859532     0.15000
C1955       C  0.62305510  0.36390915  0.88662629     0.86800
C1956       C  0.64289332  0.38546455  0.91008621    -0.53500
C1957       C  0.62352874  0.40708635  0.92650822     0.09700
C1958       C  0.58619929  0.40476795  0.91807128     0.20600
C1959       C  0.59639046  0.34629404  0.90612275    -0.54200
C1960       C  0.57702379  0.36771225  0.92245750     0.09800
C1961       C  0.60364217  0.38897006  0.86602926    -0.53700
C1962       C  0.58411351  0.41032672  0.88261574     0.10300
H1963       H  0.66968828  0.38419800  0.91296090     0.14900
H1964       H  0.57031954  0.42211765  0.93166312     0.00600
H1965       H  0.59354465  0.31934920  0.90756393     0.15200
H1966       H  0.60432274  0.38893190  0.84076139     0.15000
C1967       C  0.61966169  0.13471489  0.88723661     0.86800
C1968       C  0.59922786  0.11069096  0.86649766    -0.53500
C1969       C  0.57983784  0.08913779  0.88297417     0.09700
C1970       C  0.58311204  0.09342869  0.91859226     0.20600
C1971       C  0.59396506  0.15214336  0.90800845    -0.54200
C1972       C  0.57487023  0.13048505  0.92454320     0.09800
C1973       C  0.63979758  0.11216980  0.90947362    -0.53700
C1974       C  0.62066188  0.09035655  0.92576012     0.10300
H1975       H  0.59970821  0.11106685  0.84122315     0.14900
H1976       H  0.56744836  0.07581910  0.93213827     0.00600
H1977       H  0.59128264  0.17907195  0.90978158     0.15200
H1978       H  0.66663269  0.11333315  0.91210518     0.15000
N1979       N  0.99548307  0.44621601  0.87388029    -0.36300
N1980       N  0.94754820  0.99900731  0.87576368    -0.56900
N1981       N  0.99640244  0.05279500  0.87719088    -0.36300
N1982       N  0.54865892  0.00388291  0.86871943    -0.56900
C1983       C  0.96888953  0.42586865  0.87039327     0.27200
C1984       C  0.52636063  0.42446143  0.86645554     0.27200
C1985       C  0.96815083  0.06980701  0.87087367     0.27200
C1986       C  0.52327469  0.07294839  0.86423727     0.27200
C1987       C  0.92367090  0.46747650  0.87444352     0.35900
C1988       C  0.92642474  0.02517206  0.87575355     0.35900
C1989       C  0.57014517  0.46741440  0.86282779     0.35900
C1990       C  0.56772437  0.03123154  0.86482259     0.35900
C1991       C  0.97929491  0.39499090  0.85989222    -0.21600
C1992       C  0.51606850  0.39294688  0.85759595    -0.21600
C1993       C  0.97577045  0.09954928  0.85617102    -0.21600
C1994       C  0.51268010  0.10175785  0.84952972    -0.21600
C1995       C  0.89053803  0.47591274  0.87211043    -0.22700
C1996       C  0.89411241  0.01418101  0.87270895    -0.22700
C1997       C  0.60164686  0.47671107  0.85363131    -0.22700
C1998       C  0.59946076  0.02221707  0.85633459    -0.22700
C1999       C  0.93553528  0.43446534  0.87634894    -0.18000
C2000       C  0.55988495  0.43442856  0.86878166    -0.18000
C2001       C  0.55673041  0.06416794  0.86885721    -0.18000
C2002       C  0.93574864  0.05893445  0.87782408    -0.18000
H2003       H  0.96374066  0.37392865  0.85376039     0.14900
H2004       H  0.53171913  0.37241251  0.85039843     0.14900
H2005       H  0.95842637  0.11782655  0.84713328     0.14900
H2006       H  0.52811837  0.12082677  0.83909091     0.14900
H2007       H  0.86984802  0.45899487  0.86910950     0.13200
H2008       H  0.87224289  0.02946262  0.86949299     0.13200
H2009       H  0.62192499  0.46031678  0.84744993     0.13200
H2010       H  0.61943538  0.03877181  0.84964216     0.13200
H2011       H  0.99528892  0.47027433  0.88274163     0.26400
H2012       H  0.99820945  0.03032489  0.88922145     0.26400
C2013       C  0.87414475  0.36872842  0.61961293     0.86800
C2014       C  0.89349612  0.39399518  0.64004493    -0.53500
C2015       C  0.91142085  0.41660512  0.62319159     0.09700
C2016       C  0.90824961  0.41186233  0.58774548     0.20600
C2017       C  0.85262956  0.39040212  0.59732953    -0.54200
C2018       C  0.87056202  0.41342885  0.58082912     0.09800
C2019       C  0.90064342  0.35275884  0.59873502    -0.53700
C2020       C  0.91860317  0.37520576  0.58213922     0.10300
H2021       H  0.89395005  0.39325355  0.66531486     0.14900
H2022       H  0.92304225  0.43010124  0.57405610     0.00600
H2023       H  0.82586711  0.38788649  0.59502320     0.15200
H2024       H  0.90462174  0.32599789  0.59684968     0.15000
C2025       C  0.63312494  0.37811485  0.62657242     0.86800
C2026       C  0.60854341  0.40115374  0.64377749    -0.53500
C2027       C  0.58846902  0.41917203  0.62438897     0.09700
C2028       C  0.59477047  0.41231437  0.58953797     0.20600
C2029       C  0.61124926  0.35614308  0.60493540    -0.54200
C2030       C  0.59096208  0.37419457  0.58554679     0.09800
C2031       C  0.65220010  0.40147482  0.60431842    -0.53700
C2032       C  0.63210643  0.41922712  0.58476850     0.10300
H2033       H  0.60710505  0.40294599  0.66896288     0.14900
H2034       H  0.57842840  0.42705629  0.57375222     0.00600
H2035       H  0.61201997  0.32903652  0.60476896     0.15200
H2036       H  0.67906306  0.40411879  0.60429227     0.15000
N2037       N  0.00464345  0.36719110  0.55283465    -0.36300
N2038       N  0.95544022  0.36450411  0.50358186    -0.56900
N2039       N  0.99721807  0.36079261  0.95561038    -0.36300
N2040       N  0.55923006  0.35788561  0.50489165    -0.56900
C2041       C  0.97701772  0.35860868  0.56868545     0.27200
C2042       C  0.53479233  0.35384555  0.56889579     0.27200
C2043       C  0.97042895  0.35092836  0.93875921     0.27200
C2044       C  0.51926481  0.34980527  0.93499394     0.27200
C2045       C  0.93487276  0.36151931  0.52805252     0.35900
C2046       C  0.92904419  0.34658365  0.98028763     0.35900
C2047       C  0.57916497  0.35745313  0.53035008     0.35900
C2048       C  0.56148697  0.35612360  0.97663176     0.35900
C2049       C  0.98561773  0.34117387  0.59531756    -0.21600
C2050       C  0.52424215  0.33791021  0.59559122    -0.21600
C2051       C  0.98043324  0.33998988  0.90983911    -0.21600
C2052       C  0.51098025  0.33668690  0.90618782    -0.21600
C2053       C  0.90351193  0.35237246  0.51836825    -0.22700
C2054       C  0.89871585  0.33557180  0.99096041    -0.22700
C2055       C  0.61185447  0.35375724  0.52172963    -0.22700
C2056       C  0.59391374  0.35272426  0.98671584    -0.22700
C2057       C  0.94436101  0.36552331  0.55912869    -0.18000
C2058       C  0.56816599  0.35978856  0.56130722    -0.18000
C2059       C  0.55181170  0.35676765  0.94523208    -0.18000
C2060       C  0.93719156  0.35127907  0.94877921    -0.18000
H2061       H  0.96895486  0.32998571  0.61204202     0.14900
H2062       H  0.53970071  0.32709840  0.61366329     0.14900
H2063       H  0.96483153  0.32959883  0.89167275     0.14900
H2064       H  0.52789122  0.32868201  0.88817752     0.14900
H2065       H  0.88289165  0.34525413  0.53295738     0.13200
H2066       H  0.87802703  0.32680631  0.97702877     0.13200
H2067       H  0.63292363  0.35016374  0.53707068     0.13200
H2068       H  0.61540310  0.34771051  0.97248484     0.13200
H2069       H  0.00572704  0.38152335  0.53262813     0.26400
H2070       H  0.99715500  0.37165335  0.97753586     0.26400
C2071       C  0.62783074  0.12064235  0.62575712     0.86800
C2072       C  0.60699884  0.14256879  0.60312058    -0.53500
C2073       C  0.58650167  0.12443493  0.58390319     0.09700
C2074       C  0.58871110  0.08640327  0.58944898     0.20600
C2075       C  0.60226927  0.09914608  0.64343316    -0.54200
C2076       C  0.58175829  0.08116985  0.62448118     0.09800
C2077       C  0.64626478  0.09583890  0.60448138    -0.53700
C2078       C  0.62576329  0.07803937  0.58538185     0.10300
H2079       H  0.60832546  0.16964221  0.60243258     0.14900
H2080       H  0.57206757  0.07159462  0.57399744     0.00600
H2081       H  0.60090477  0.09785411  0.66865185     0.15200
H2082       H  0.67306445  0.09262418  0.60444810     0.15000
N2083       N  0.94260510  0.50202284  0.63345211    -0.36300
N2084       N  0.99526710  0.45286056  0.63779154    -0.56900
N2085       N  0.55177893  0.50302045  0.63250320    -0.36300
N2086       N  0.00135729  0.04601163  0.63406751    -0.56900
C2087       C  0.92463689  0.47446507  0.64017493     0.27200
C2088       C  0.93245479  0.01960799  0.64049546     0.27200
C2089       C  0.57030553  0.47628638  0.64084716     0.27200
C2090       C  0.56448669  0.02362486  0.63992179     0.27200
C2091       C  0.96906158  0.43176343  0.63857827     0.35900
C2092       C  0.52896410  0.43120499  0.63632089     0.35900
C2093       C  0.97412683  0.06468255  0.63964443     0.35900
C2094       C  0.52319855  0.06833654  0.64024721     0.35900
C2095       C  0.89333669  0.48370600  0.65004419    -0.21600
C2096       C  0.90271502  0.00846890  0.65264033    -0.21600
C2097       C  0.59890547  0.48685260  0.65586116    -0.21600
C2098       C  0.59262938  0.01267404  0.65535709    -0.21600
C2099       C  0.97997551  0.39922243  0.64119673    -0.22700
C2100       C  0.52005976  0.39817075  0.63956274    -0.22700
C2101       C  0.98320305  0.09677813  0.64765270    -0.22700
C2102       C  0.51434187  0.09997723  0.64975292    -0.22700
C2103       C  0.93537508  0.44124713  0.63649383    -0.18000
C2104       C  0.94114367  0.05345851  0.63678240    -0.18000
C2105       C  0.55594135  0.05731006  0.63579147    -0.18000
C2106       C  0.56200346  0.44270316  0.63505342    -0.18000
H2107       H  0.87369962  0.46727553  0.65783168     0.14900
H2108       H  0.88268849  0.02369368  0.66154441     0.14900
H2109       H  0.61800970  0.47128944  0.66615327     0.14900
H2110       H  0.61120640  0.02794867  0.66682806     0.14900
H2111       H  0.96474554  0.37728214  0.64451835     0.13200
H2112       H  0.53661399  0.37736118  0.64362228     0.13200
H2113       H  0.96692896  0.11664305  0.65520661     0.13200
H2114       H  0.53089401  0.11989980  0.65680698     0.13200
H2115       H  0.96623143  0.50240701  0.62396457     0.26400
H2116       H  0.52970530  0.50256196  0.61980680     0.26400
N2117       N  0.64133706  0.45320262  0.50583177    -0.36300
N2118       N  0.63969832  0.99221402  0.55350647    -0.56900
N2119       N  0.63680511  0.04369217  0.50605696    -0.36300
N2120       N  0.63676536  0.00584413  0.95802008    -0.56900
C2121       C  0.65024512  0.43554258  0.53133561     0.27200
C2122       C  0.64195432  0.42364854  0.98036599     0.27200
C2123       C  0.64233536  0.06259480  0.53159175     0.27200
C2124       C  0.63782036  0.07620103  0.97990922     0.27200
C2125       C  0.64514970  0.47836117  0.57202186     0.35900
C2126       C  0.64010359  0.01913416  0.57243228     0.35900
C2127       C  0.63923696  0.46558234  0.93921194     0.35900
C2128       C  0.63945170  0.03291862  0.93947086     0.35900
C2129       C  0.66643044  0.40665724  0.52250316    -0.21600
C2130       C  0.65798525  0.39498099  0.99022784    -0.21600
C2131       C  0.65365393  0.09375846  0.52278075    -0.21600
C2132       C  0.64917995  0.10721993  0.98925252    -0.21600
C2133       C  0.64904231  0.48846984  0.60248543    -0.22700
C2134       C  0.64366339  0.00922363  0.60301098    -0.22700
C2135       C  0.64777879  0.47499714  0.90950086    -0.22700
C2136       C  0.64841574  0.02352100  0.90983951    -0.22700
C2137       C  0.64404638  0.44489979  0.56229884    -0.18000
C2138       C  0.63634515  0.43240097  0.94913613    -0.18000
C2139       C  0.63400669  0.06604989  0.94885809    -0.18000
C2140       C  0.63732734  0.05257441  0.56261987    -0.18000
H2141       H  0.67755875  0.38817375  0.53770356     0.14900
H2142       H  0.66880727  0.37575049  0.97577345     0.14900
H2143       H  0.66152875  0.11379380  0.53801021     0.14900
H2144       H  0.65775391  0.12733160  0.97449064     0.14900
H2145       H  0.65389380  0.47270522  0.62242612     0.13200
H2146       H  0.64730707  0.02522418  0.62298517     0.13200
H2147       H  0.65534350  0.45870810  0.89076701     0.13200
H2148       H  0.65503847  0.03993133  0.89086919     0.13200
H2149       H  0.62765695  0.47520707  0.50550535     0.26400
H2150       H  0.62681448  0.01982935  0.50572776     0.26400
N2151       N  0.94469780  0.12958241  0.50220107    -0.36300
N2152       N  0.98884344  0.14341786  0.95801305    -0.56900
N2153       N  0.55541938  0.13699591  0.50293144    -0.36300
N2154       N  0.99879736  0.13653817  0.54877309    -0.56900
C2155       C  0.91961478  0.14690198  0.98140825     0.27200
C2156       C  0.92811046  0.13720774  0.52842753     0.27200
C2157       C  0.55820152  0.14511708  0.97827028     0.27200
C2158       C  0.57389619  0.14256417  0.52888297     0.27200
C2159       C  0.96150300  0.14513395  0.93969052     0.35900
C2160       C  0.51599054  0.14514516  0.93597129     0.35900
C2161       C  0.97241023  0.13897227  0.56768870     0.35900
C2162       C  0.52948163  0.14198500  0.56824218     0.35900
C2163       C  0.89034372  0.16136888  0.99137809    -0.21600
C2164       C  0.89791457  0.15171557  0.52101657    -0.21600
C2165       C  0.58935586  0.15522938  0.98816196    -0.21600
C2166       C  0.60529372  0.15300789  0.52038290    -0.21600
C2167       C  0.97055384  0.14998423  0.90911241    -0.22700
C2168       C  0.50731240  0.14967891  0.90515105    -0.22700
C2169       C  0.98227048  0.14958392  0.59687341    -0.22700
C2170       C  0.51861377  0.15036316  0.59758062    -0.22700
C2171       C  0.92841838  0.14226302  0.95000137    -0.18000
C2172       C  0.93966067  0.13158722  0.55884192    -0.18000
C2173       C  0.56308445  0.13853281  0.55994735    -0.18000
C2174       C  0.54886627  0.14115908  0.94687340    -0.18000
H2175       H  0.87087987  0.17190243  0.97692337     0.14900
H2176       H  0.87973678  0.16156642  0.53705525     0.14900
H2177       H  0.60990258  0.16290437  0.97368668     0.14900
H2178       H  0.62528542  0.16048233  0.53581271     0.14900
H2179       H  0.95406503  0.15437406  0.88958481     0.13200
H2180       H  0.52405724  0.15347947  0.88589824     0.13200
H2181       H  0.96639581  0.15591597  0.61621400     0.13200
H2182       H  0.53386012  0.15786413  0.61716550     0.13200
H2183       H  0.96738204  0.11720026  0.50108465     0.26400
H2184       H  0.53152744  0.12741629  0.50209595     0.26400
C2185       C  0.87409615  0.12145892  0.62258467     0.86800
C2186       C  0.89744566  0.13974746  0.60023082    -0.53500
C2187       C  0.91611844  0.11914595  0.58256838     0.09700
C2188       C  0.91019267  0.08165081  0.58906038     0.20600
C2189       C  0.85346134  0.09761350  0.60158916    -0.54200
C2190       C  0.87258013  0.07638498  0.58421740     0.09800
C2191       C  0.89690996  0.09833995  0.64208262    -0.53700
C2192       C  0.91577873  0.07730287  0.62440001     0.10300
H2193       H  0.89893900  0.16676847  0.59818362     0.14900
H2194       H  0.92583166  0.06489964  0.57460463     0.00600
H2195       H  0.82650572  0.09760483  0.60051979     0.15200
H2196       H  0.89836558  0.09895268  0.66732361     0.15000
N2197       N  0.85629431  0.49888200  0.54831249    -0.36300
N2198       N  0.85872529  0.44690476  0.50146875    -0.56900
N2199       N  0.85719545  0.49152164  0.95875824    -0.36300
N2200       N  0.85667550  0.04066444  0.50526400    -0.56900
C2201       C  0.85225957  0.47168709  0.56673438     0.27200
C2202       C  0.85769727  0.01728109  0.57099392     0.27200
C2203       C  0.84808176  0.46421551  0.94240273     0.27200
C2204       C  0.85027535  0.02044488  0.94289941     0.27200
C2205       C  0.85234379  0.42766450  0.52655862     0.35900
C2206       C  0.85283239  0.42044756  0.98169572     0.35900
C2207       C  0.85487873  0.06103661  0.53027210     0.35900
C2208       C  0.85392412  0.06398272  0.98276266     0.35900
C2209       C  0.84241458  0.48185608  0.59597644    -0.21600
C2210       C  0.84996950  0.00693886  0.60077340    -0.21600
C2211       C  0.83023120  0.47352636  0.91624108    -0.21600
C2212       C  0.83396513  0.00987892  0.91626944    -0.21600
C2213       C  0.84240124  0.39621000  0.51720211    -0.22700
C2214       C  0.84543396  0.38828680  0.99068830    -0.22700
C2215       C  0.84865776  0.09337462  0.52080009    -0.22700
C2216       C  0.84924064  0.09640550  0.99236942    -0.22700
C2217       C  0.85648093  0.43793213  0.55771283    -0.18000
C2218       C  0.85966551  0.05105252  0.56147669    -0.18000
C2219       C  0.85514541  0.05394958  0.95141978    -0.18000
C2220       C  0.85535933  0.43118645  0.95077378    -0.18000
H2221       H  0.83572140  0.46590391  0.61528813     0.14900
H2222       H  0.84301663  0.02268851  0.62012778     0.14900
H2223       H  0.81894572  0.45718757  0.89912568     0.14900
H2224       H  0.82185838  0.02534891  0.89893948     0.14900
H2225       H  0.83416238  0.37593223  0.53192800     0.13200
H2226       H  0.83864244  0.36771640  0.97564264     0.13200
H2227       H  0.84382666  0.11465650  0.53556554     0.13200
H2228       H  0.84393129  0.11766129  0.97766660     0.13200
H2229       H  0.86486876  0.49890004  0.52568045     0.26400
H2230       H  0.87206417  0.49188957  0.97864789     0.26400
C2231       C  0.85674091  0.32627601  0.84178063    -0.16200
C2232       C  0.84553355  0.34693677  0.86395337    -0.31300
H2233       H  0.88298403  0.31994976  0.84116774     0.12900
H2234       H  0.81903836  0.35213420  0.86490156     0.13400
C2235       C  0.85099369  0.16113439  0.84293343    -0.16200
C2236       C  0.83961441  0.13872132  0.86370034    -0.31300
H2237       H  0.87696764  0.16852512  0.84393087     0.12900
H2238       H  0.81349421  0.13182130  0.86326262     0.13400
C2239       C  0.64357356  0.33947403  0.86838072    -0.16200
C2240       C  0.66946669  0.34934244  0.85131092    -0.31300
H2241       H  0.63647745  0.31325718  0.86845131     0.12900
H2242       H  0.67726315  0.37533650  0.85170653     0.13400
C2243       C  0.82985368  0.35038126  0.65628845    -0.16200
C2244       C  0.85553401  0.34251516  0.63809187    -0.31300
H2245       H  0.82098454  0.37602025  0.65667097     0.12900
H2246       H  0.86381825  0.31668900  0.63714204     0.13400
C2247       C  0.64048154  0.15887233  0.86904646    -0.16200
C2248       C  0.66633826  0.14829346  0.85230999    -0.31300
H2249       H  0.63384990  0.18519880  0.86901666     0.12900
H2250       H  0.67354063  0.12213173  0.85294287     0.13400
C2251       C  0.64458124  0.33653048  0.66896437    -0.16200
C2252       C  0.65601351  0.35914413  0.64851806    -0.31300
H2253       H  0.61836718  0.32999953  0.66869873     0.12900
H2254       H  0.68244373  0.36474870  0.64818271     0.13400
C2255       C  0.82942500  0.13778338  0.65995862    -0.16200
C2256       C  0.85453868  0.14642520  0.64144014    -0.31300
H2257       H  0.82148741  0.11186697  0.66110552     0.12900
H2258       H  0.86126285  0.17269230  0.63986274     0.13400
C2259       C  0.65138025  0.13920244  0.64741317    -0.16200
C2260       C  0.64084986  0.16214607  0.66792705    -0.31300
H2261       H  0.67757810  0.13259459  0.64716448     0.12900
H2262       H  0.61490035  0.16964252  0.66772862     0.13400
N2263       N  0.71029210  0.81537848  0.21424142    -0.05900
N2264       N  0.70592150  0.84187012  0.19656374    -0.58000
N2265       N  0.67560843  0.78733316  0.27793463    -0.05500
N2266       N  0.65044632  0.79023641  0.29730941    -0.60100
N2267       N  0.69875139  0.80955456  0.28429451    -0.05100
N2268       N  0.68977100  0.82812176  0.30825493    -0.58000
N2269       N  0.68793953  0.79226870  0.20801471    -0.04800
N2270       N  0.66751892  0.80302589  0.18597143    -0.60500
C2271       C  0.67949288  0.83382985  0.17891241     0.96300
C2272       C  0.65967401  0.81553859  0.31616947     0.96100
N2273       N  0.69991098  0.68829674  0.28078283    -0.06000
N2274       N  0.69181949  0.66929291  0.30491832    -0.58600
N2275       N  0.68867829  0.71056904  0.20530208    -0.04200
N2276       N  0.66785401  0.70050331  0.18324334    -0.59800
N2277       N  0.71174708  0.68771503  0.20984585    -0.06100
N2278       N  0.70731549  0.66209257  0.19109469    -0.58800
N2279       N  0.67653902  0.71066873  0.27576309    -0.03800
N2280       N  0.65223127  0.70739882  0.29600823    -0.59900
Mn2281     Mn  0.68139200  0.75017704  0.24084306     1.18400
C2282       C  0.66199153  0.68173631  0.31416825     0.98400
C2283       C  0.68020242  0.67039611  0.17443039     0.99100
N2284       N  0.77696650  0.81160206  0.29411955    -0.06100
N2285       N  0.78155079  0.83541185  0.31486368    -0.62400
N2286       N  0.81018227  0.79294389  0.22453995    -0.04900
N2287       N  0.83360339  0.80080862  0.20410890    -0.63100
N2288       N  0.78657636  0.81571950  0.22403867    -0.05600
N2289       N  0.79334068  0.83936066  0.20368164    -0.62700
N2290       N  0.80090483  0.78929692  0.29583426    -0.04500
N2291       N  0.82213214  0.79736998  0.31812216    -0.63400
Mn2292     Mn  0.74310401  0.81359927  0.25451029     1.10700
C2293       C  0.80946344  0.82599655  0.32989715     0.99600
C2294       C  0.82247852  0.82982586  0.19121081     0.99700
N2295       N  0.78929594  0.68926730  0.21947300    -0.05600
N2296       N  0.79889677  0.66785482  0.19778786    -0.61000
N2297       N  0.80159748  0.71003256  0.29372197    -0.04900
N2298       N  0.82086612  0.70174969  0.31757620    -0.57700
N2299       N  0.77772267  0.68782616  0.29040607    -0.06200
N2300       N  0.77991201  0.66437280  0.31184109    -0.60500
N2301       N  0.81175404  0.71295743  0.22291042    -0.05200
N2302       N  0.83706312  0.70800402  0.20402599    -0.57700
Mn2303     Mn  0.74468834  0.68743976  0.25018759     1.20200
Mn2304     Mn  0.80722643  0.75126794  0.25929019     1.10100
Cl2305     Cl  0.74418246  0.75059288  0.25095217    -0.85700
C2306       C  0.82869201  0.68001553  0.18829650     0.96600
C2307       C  0.80673724  0.67333614  0.32870467     0.96400
C2308       C  0.87411838  0.86172804  0.38657553     0.86800
C2309       C  0.89962576  0.84368438  0.40722168    -0.53500
C2310       C  0.91850309  0.86478319  0.42457828     0.09700
C2311       C  0.91010513  0.90207950  0.41981917     0.20600
C2312       C  0.85362027  0.88349223  0.40907141    -0.54200
C2313       C  0.87240984  0.90500100  0.42623165     0.09800
C2314       C  0.89472695  0.88657724  0.36695516    -0.53700
C2315       C  0.91383580  0.90767218  0.38450699     0.10300
H2316       H  0.90247420  0.81671693  0.40821527     0.14900
H2317       H  0.92558137  0.91920118  0.43420787     0.00600
H2318       H  0.82676750  0.88213411  0.41114584     0.15200
H2319       H  0.89454802  0.88708408  0.34167990     0.15000
C2320       C  0.87142873  0.62695690  0.38012213     0.86800
C2321       C  0.89591087  0.60474750  0.36190456    -0.53500
C2322       C  0.91505458  0.58474016  0.38032945     0.09700
C2323       C  0.90787803  0.58875910  0.41537784     0.20600
C2324       C  0.85095183  0.60223014  0.40044646    -0.57900
C2325       C  0.87032024  0.58216858  0.41897377     0.09800
C2326       C  0.89302699  0.64626534  0.40349457    -0.53700
C2327       C  0.91207341  0.62639278  0.42189494     0.10300
H2328       H  0.89780436  0.60477452  0.33668780     0.14900
H2329       H  0.92367474  0.57265858  0.43047798     0.00600
H2330       H  0.82406801  0.60112276  0.40121836     0.15200
H2331       H  0.89387877  0.67335855  0.40484336     0.15000
C2332       C  0.62774819  0.86777274  0.38483622     0.86800
C2333       C  0.64745933  0.88981550  0.40774923    -0.53500
C2334       C  0.62794945  0.90817709  0.42695329     0.09700
C2335       C  0.59033547  0.90302729  0.42127157     0.20600
C2336       C  0.60457919  0.84636138  0.40550286    -0.54200
C2337       C  0.58473519  0.86510024  0.42453662     0.09800
C2338       C  0.60447957  0.89196201  0.36731339    -0.53700
C2339       C  0.58473291  0.91030379  0.38636688     0.10300
H2340       H  0.67441345  0.89120293  0.40846674     0.14900
H2341       H  0.57440149  0.91829874  0.43681856     0.00600
H2342       H  0.60390268  0.81925607  0.40505629     0.15200
H2343       H  0.60373797  0.89441063  0.34213102     0.15000
C2344       C  0.62923207  0.63038891  0.38428913     0.86800
C2345       C  0.60575333  0.60692025  0.36618162    -0.53500
C2346       C  0.58559263  0.58837665  0.38464073     0.09700
C2347       C  0.59109570  0.59449518  0.41980404     0.20600
C2348       C  0.60604838  0.65143887  0.40560032    -0.54200
C2349       C  0.58598992  0.63233799  0.42445231     0.09800
C2350       C  0.64846231  0.60745516  0.40682196    -0.53700
C2351       C  0.62856393  0.58872405  0.42543545     0.10300
H2352       H  0.60545245  0.60478060  0.34096863     0.14900
H2353       H  0.57494928  0.57883077  0.43483869     0.00600
H2354       H  0.60544042  0.67854039  0.40556261     0.15200
H2355       H  0.67539890  0.60606400  0.40797807     0.15000
N2356       N  0.99695089  0.94519780  0.37101090    -0.36300
N2357       N  0.95091434  0.50004637  0.36723452    -0.56900
N2358       N  0.00000067  0.55319641  0.37347840    -0.36300
N2359       N  0.55373166  0.50251345  0.37315483    -0.56900
C2360       C  0.97043923  0.92485587  0.36691289     0.27200
C2361       C  0.52700714  0.92610449  0.37058633     0.27200
C2362       C  0.97283339  0.57017443  0.36383106     0.27200
C2363       C  0.52898224  0.57156983  0.36608871     0.27200
C2364       C  0.92522568  0.96660658  0.36884687     0.35900
C2365       C  0.93013436  0.52647791  0.36576291     0.35900
C2366       C  0.57136815  0.96847288  0.37019379     0.35900
C2367       C  0.57306995  0.52972040  0.36975989     0.35900
C2368       C  0.98118761  0.89373362  0.35742404    -0.21600
C2369       C  0.51689432  0.89488150  0.36067002    -0.21600
C2370       C  0.98233795  0.59909313  0.34869956    -0.21600
C2371       C  0.51927516  0.60041979  0.35089608    -0.21600
C2372       C  0.89219402  0.97533410  0.36631302    -0.22700
C2373       C  0.89792319  0.51590733  0.36102149    -0.22700
C2374       C  0.60319461  0.97717557  0.36158842    -0.22700
C2375       C  0.60518344  0.52054871  0.36285970    -0.22700
C2376       C  0.93687966  0.93355773  0.37174156    -0.18000
C2377       C  0.56036544  0.93560756  0.37509986    -0.18000
C2378       C  0.56203016  0.56272723  0.37260135    -0.18000
C2379       C  0.93978299  0.56007713  0.36848351    -0.18000
H2380       H  0.96581126  0.87261000  0.35109416     0.14900
H2381       H  0.53268557  0.87417755  0.35421428     0.14900
H2382       H  0.96622756  0.61725443  0.33763777     0.14900
H2383       H  0.53529598  0.61945064  0.34119756     0.14900
H2384       H  0.87136101  0.95852992  0.36363219     0.13200
H2385       H  0.87645201  0.53149194  0.35675865     0.13200
H2386       H  0.62307815  0.96045457  0.35512266     0.13200
H2387       H  0.62542930  0.53694422  0.35661264     0.13200
H2388       H  0.99648428  0.96941440  0.37942473     0.26400
H2389       H  0.00012273  0.53129870  0.38653517     0.26400
C2390       C  0.88083057  0.86338095  0.12622233     0.86800
C2391       C  0.90327752  0.88874816  0.14337501    -0.53500
C2392       C  0.92011628  0.90964430  0.12394683     0.09700
C2393       C  0.91335462  0.90292728  0.08916719     0.20600
C2394       C  0.85813102  0.88503732  0.10493587    -0.54200
C2395       C  0.87537206  0.90612408  0.08573173     0.09800
C2396       C  0.90418005  0.84485878  0.10367461    -0.53700
C2397       C  0.92112893  0.86546743  0.08412024     0.10300
H2398       H  0.90573208  0.88995672  0.16853961     0.14900
H2399       H  0.92742506  0.91974946  0.07339827     0.00600
H2400       H  0.83117609  0.88412750  0.10539314     0.15200
H2401       H  0.90704257  0.81788821  0.10317733     0.15000
C2402       C  0.61818395  0.87566743  0.12250519     0.86800
C2403       C  0.59721031  0.90001064  0.14234761    -0.53500
C2404       C  0.57855616  0.92165464  0.12489971     0.09700
C2405       C  0.58280526  0.91678368  0.08953057     0.20600
C2406       C  0.59322071  0.85825948  0.10110147    -0.54200
C2407       C  0.57485006  0.87964786  0.08389994     0.09800
C2408       C  0.63914445  0.89814949  0.10071630    -0.53700
C2409       C  0.62042630  0.91992766  0.08345768     0.10300
H2410       H  0.59611386  0.89916207  0.16758732     0.14900
H2411       H  0.56740419  0.93404625  0.07520824     0.00600
H2412       H  0.59097146  0.83131355  0.09877289     0.15200
H2413       H  0.66606114  0.89720724  0.09941354     0.15000
N2414       N  0.00470423  0.86222152  0.05115587    -0.36300
N2415       N  0.95333403  0.85344732  0.00385640    -0.56900
N2416       N  0.00468436  0.85786589  0.45283324    -0.36300
N2417       N  0.54490693  0.86668436  0.00312287    -0.56900
C2418       C  0.97897332  0.85102123  0.06831425     0.27200
C2419       C  0.51974249  0.85962489  0.06672712     0.27200
C2420       C  0.97726092  0.85019150  0.43617447     0.27200
C2421       C  0.52667978  0.84867271  0.43728125     0.27200
C2422       C  0.93456546  0.84833008  0.02937289     0.35900
C2423       C  0.93561316  0.84860483  0.47779540     0.35900
C2424       C  0.56414353  0.86696718  0.02878414     0.35900
C2425       C  0.56934732  0.84900897  0.47863232     0.35900
C2426       C  0.99061746  0.83577671  0.09508053    -0.21600
C2427       C  0.51038638  0.84197538  0.09295271    -0.21600
C2428       C  0.98619731  0.83874923  0.40704305    -0.21600
C2429       C  0.51668643  0.83746463  0.40830304    -0.21600
C2430       C  0.90360483  0.83660563  0.02089936    -0.22700
C2431       C  0.90456850  0.83876839  0.48768271    -0.22700
C2432       C  0.59722623  0.86447174  0.02104690    -0.22700
C2433       C  0.60165982  0.84594257  0.48895882    -0.22700
C2434       C  0.94530622  0.85378627  0.06015123    -0.18000
C2435       C  0.55225077  0.86823369  0.05919462    -0.18000
C2436       C  0.55995758  0.85162595  0.44709845    -0.18000
C2437       C  0.94446089  0.85337403  0.44664519    -0.18000
H2438       H  0.97601140  0.82342210  0.11277126     0.14900
H2439       H  0.52650344  0.83114240  0.11048521     0.14900
H2440       H  0.96977300  0.82960742  0.38893791     0.14900
H2441       H  0.53243643  0.82811848  0.38991628     0.14900
H2442       H  0.88421375  0.82806189  0.03631831     0.13200
H2443       H  0.88398642  0.83076346  0.47323896     0.13200
H2444       H  0.61786974  0.86099626  0.03688232     0.13200
H2445       H  0.62340154  0.84225964  0.47472151     0.13200
H2446       H  0.00314072  0.87580516  0.03054166     0.26400
H2447       H  0.00523695  0.86864235  0.47478214     0.26400
C2448       C  0.61754232  0.62768461  0.11907754     0.86800
C2449       C  0.59283498  0.64391993  0.09642794    -0.53500
C2450       C  0.57472005  0.62158812  0.07978015     0.09700
C2451       C  0.58237121  0.58480106  0.08772784     0.20600
C2452       C  0.59625148  0.60448229  0.13981396    -0.54200
C2453       C  0.57771935  0.58191914  0.12332758     0.09800
C2454       C  0.63862568  0.60398632  0.09860264    -0.53700
C2455       C  0.62003062  0.58126185  0.08232499     0.10300
H2456       H  0.59028941  0.67072868  0.09323853     0.14900
H2457       H  0.56715669  0.56670648  0.07415456     0.00600
H2458       H  0.59532269  0.60633644  0.16501380     0.15200
H2459       H  0.66551976  0.60517721  0.09703586     0.15000
N2460       N  0.95040012  0.99689754  0.13369958    -0.36300
N2461       N  0.00367338  0.94833054  0.13677084    -0.56900
N2462       N  0.54343791  0.00496082  0.13441493    -0.36300
N2463       N  0.99894728  0.55049530  0.13691596    -0.56900
C2464       C  0.93281428  0.96870934  0.13915965     0.27200
C2465       C  0.93023583  0.52386449  0.14086805     0.27200
C2466       C  0.56101853  0.97800436  0.14376904     0.27200
C2467       C  0.56211554  0.52471220  0.14178105     0.27200
C2468       C  0.97783563  0.92681877  0.13721121     0.35900
C2469       C  0.51933603  0.93354690  0.13717057     0.35900
C2470       C  0.97154259  0.56924782  0.14146467     0.35900
C2471       C  0.51968571  0.56849814  0.13929556     0.35900
C2472       C  0.90167013  0.97701049  0.15009028    -0.21600
C2473       C  0.90006377  0.51239296  0.15169609    -0.21600
C2474       C  0.58903900  0.98816591  0.15995722    -0.21600
C2475       C  0.59053205  0.51437214  0.15719444    -0.21600
C2476       C  0.98911031  0.89451671  0.14078386    -0.22700
C2477       C  0.50985152  0.90055333  0.13930800    -0.22700
C2478       C  0.98039081  0.60124776  0.15003420    -0.22700
C2479       C  0.50948197  0.59998164  0.14802240    -0.22700
C2480       C  0.94414486  0.93574205  0.13454001    -0.18000
C2481       C  0.93869458  0.55787792  0.13767187    -0.18000
C2482       C  0.55299524  0.55824218  0.13706622    -0.18000
C2483       C  0.55256947  0.94460998  0.13742105    -0.18000
H2484       H  0.88250917  0.95993890  0.15769659     0.14900
H2485       H  0.87962099  0.52736399  0.16012020     0.14900
H2486       H  0.60757471  0.97230144  0.17076770     0.14900
H2487       H  0.60912328  0.53011259  0.16808989     0.14900
H2488       H  0.97415284  0.87242956  0.14428332     0.13200
H2489       H  0.52592427  0.87934218  0.14330609     0.13200
H2490       H  0.96388807  0.62107187  0.15723000     0.13200
H2491       H  0.52503199  0.62025360  0.15618031     0.13200
H2492       H  0.97394448  0.99819146  0.12407755     0.26400
H2493       H  0.52217269  0.00470263  0.12056124     0.26400
N2494       N  0.63284156  0.95414671  0.00513250    -0.36300
N2495       N  0.63636815  0.49499832  0.05201117    -0.56900
N2496       N  0.63122808  0.54523599  0.00415523    -0.36300
N2497       N  0.64370675  0.50469964  0.45828642    -0.56900
C2498       C  0.64183589  0.93686009  0.03087160     0.27200
C2499       C  0.64574355  0.92293038  0.48102459     0.27200
C2500       C  0.63811708  0.56471088  0.02906756     0.27200
C2501       C  0.64342497  0.57516458  0.48027662     0.27200
C2502       C  0.63364065  0.97934473  0.07137444     0.35900
C2503       C  0.63599869  0.52224365  0.07064555     0.35900
C2504       C  0.64614393  0.96577908  0.44050570     0.35900
C2505       C  0.64809273  0.53177549  0.44011942     0.35900
C2506       C  0.65961646  0.90876393  0.02240040    -0.21600
C2507       C  0.66130841  0.89382215  0.49040110    -0.21600
C2508       C  0.64973908  0.59539054  0.01916384    -0.21600
C2509       C  0.65286634  0.60679807  0.48958500    -0.21600
C2510       C  0.63467996  0.98930810  0.10203855    -0.22700
C2511       C  0.63858036  0.51275059  0.10139551    -0.22700
C2512       C  0.65636654  0.97537985  0.41126096    -0.22700
C2513       C  0.65975473  0.52242555  0.41126661    -0.22700
C2514       C  0.63382514  0.94578658  0.06163213    -0.18000
C2515       C  0.64105862  0.93268422  0.44996198    -0.18000
C2516       C  0.64114099  0.56471702  0.44914655    -0.18000
C2517       C  0.63351021  0.55563882  0.06041101    -0.18000
H2518       H  0.67064487  0.89040354  0.03779139     0.14900
H2519       H  0.67248171  0.87509981  0.47560152     0.14900
H2520       H  0.65824113  0.61584914  0.03359916     0.14900
H2521       H  0.66068461  0.62715645  0.47475422     0.14900
H2522       H  0.63784421  0.97331428  0.12209169     0.13200
H2523       H  0.64155949  0.52912740  0.12119859     0.13200
H2524       H  0.66396732  0.95923134  0.39242518     0.13200
H2525       H  0.66750365  0.53874383  0.39259370     0.13200
H2526       H  0.61806152  0.97547585  0.00450965     0.26400
H2527       H  0.62059896  0.52162007  0.00455150     0.26400
N2528       N  0.93657706  0.63582040  0.00420507    -0.36300
N2529       N  0.99632731  0.64323032  0.45429456    -0.56900
N2530       N  0.54432231  0.63056385  0.99854248    -0.36300
N2531       N  0.98977722  0.63973357  0.04994723    -0.56900
C2532       C  0.92654852  0.64593253  0.47505050     0.27200
C2533       C  0.91926410  0.64381239  0.03008826     0.27200
C2534       C  0.56924278  0.64982307  0.47853011     0.27200
C2535       C  0.56218365  0.63599620  0.02469325     0.27200
C2536       C  0.96982043  0.64274704  0.43504174     0.35900
C2537       C  0.52667775  0.64630438  0.43672810     0.35900
C2538       C  0.96369442  0.64327604  0.06934782     0.35900
C2539       C  0.51767279  0.63782482  0.06373949     0.35900
C2540       C  0.89711669  0.66144153  0.48307543    -0.21600
C2541       C  0.88935969  0.65827673  0.02165585    -0.21600
C2542       C  0.59975998  0.66154853  0.48857957    -0.21600
C2543       C  0.59366022  0.64702033  0.01703751    -0.21600
C2544       C  0.97974874  0.64658851  0.40459945    -0.22700
C2545       C  0.51695886  0.64901087  0.40602143    -0.22700
C2546       C  0.97450733  0.65250943  0.09856475    -0.22700
C2547       C  0.50773188  0.64730975  0.09310318    -0.22700
C2548       C  0.93670344  0.63946967  0.44451867    -0.18000
C2549       C  0.93016453  0.63885482  0.06100849    -0.18000
C2550       C  0.55070781  0.63162993  0.05525893    -0.18000
C2551       C  0.56018168  0.64508569  0.44690326    -0.18000
H2552       H  0.87881119  0.67208520  0.46742144     0.14900
H2553       H  0.87062910  0.66818938  0.03710381     0.14900
H2554       H  0.62002474  0.67004965  0.47413542     0.14900
H2555       H  0.61315419  0.65469574  0.03291918     0.14900
H2556       H  0.96382644  0.64976556  0.38448797     0.13200
H2557       H  0.53300045  0.65312063  0.38629820     0.13200
H2558       H  0.95917768  0.65952182  0.11810072     0.13200
H2559       H  0.52359818  0.65374380  0.11255485     0.13200
H2560       H  0.95919628  0.62332222  0.00349453     0.26400
H2561       H  0.52050678  0.62065526  0.99749521     0.26400
C2562       C  0.86574077  0.62011479  0.12620140     0.86800
C2563       C  0.88595126  0.64211250  0.10335367    -0.53500
C2564       C  0.90700749  0.62426549  0.08474031     0.09700
C2565       C  0.90575384  0.58622644  0.09087955     0.20600
C2566       C  0.84796736  0.59436064  0.10526963    -0.54200
C2567       C  0.86892325  0.57665082  0.08676381     0.09800
C2568       C  0.89188861  0.59964151  0.14452704    -0.53700
C2569       C  0.91280528  0.58171414  0.12601860     0.10300
H2570       H  0.88388339  0.66912140  0.10215256     0.14900
H2571       H  0.92274690  0.57161184  0.07577864     0.00600
H2572       H  0.82121996  0.59072562  0.10476873     0.15200
H2573       H  0.89312675  0.59873285  0.16977447     0.15000
N2574       N  0.86108438  0.99169469  0.05543764    -0.36300
N2575       N  0.85954212  0.94180541  0.00743751    -0.56900
N2576       N  0.86126732  0.98930996  0.45713444    -0.36300
N2577       N  0.85400631  0.54197103  0.00715045    -0.56900
C2578       C  0.85592365  0.96414020  0.07306609     0.27200
C2579       C  0.85471659  0.51791673  0.07267341     0.27200
C2580       C  0.85237169  0.96196991  0.44067235     0.27200
C2581       C  0.85396488  0.52427850  0.43478346     0.27200
C2582       C  0.85664842  0.92117234  0.03214821     0.35900
C2583       C  0.85469152  0.91860657  0.48044703     0.35900
C2584       C  0.85325811  0.56202870  0.03238657     0.35900
C2585       C  0.85375525  0.56918956  0.47387359     0.35900
C2586       C  0.84513437  0.97354888  0.10222907    -0.21600
C2587       C  0.84540049  0.50760686  0.10206523    -0.21600
C2588       C  0.83547008  0.97130460  0.41400031    -0.21600
C2589       C  0.84028999  0.51313748  0.40711907    -0.21600
C2590       C  0.84986205  0.88911844  0.02236901    -0.22700
C2591       C  0.84636228  0.88677567  0.48984028    -0.22700
C2592       C  0.84714044  0.59456708  0.02350770    -0.22700
C2593       C  0.84882452  0.60197802  0.48238481    -0.22700
C2594       C  0.86041729  0.93076196  0.06342444    -0.18000
C2595       C  0.85780874  0.55150673  0.06339161    -0.18000
C2596       C  0.85759061  0.55812668  0.44292843    -0.18000
C2597       C  0.85860168  0.92883704  0.44950000    -0.18000
H2598       H  0.83788183  0.95717060  0.12105626     0.14900
H2599       H  0.83786882  0.52330627  0.12125581     0.14900
H2600       H  0.82428144  0.95492643  0.39685486     0.14900
H2601       H  0.82943220  0.52827941  0.38883889     0.14900
H2602       H  0.84386583  0.86793918  0.03691529     0.13200
H2603       H  0.83943353  0.86597991  0.47511791     0.13200
H2604       H  0.84253487  0.61551644  0.03873365     0.13200
H2605       H  0.84534400  0.62301163  0.46693826     0.13200
H2606       H  0.87079531  0.99237230  0.03314959     0.26400
H2607       H  0.87541512  0.98974867  0.47746199     0.26400
C2608       C  0.82727277  0.84818529  0.35128329    -0.16200
C2609       C  0.85375518  0.83781470  0.36747638    -0.31300
H2610       H  0.81921742  0.87403864  0.35282834     0.12900
H2611       H  0.86102048  0.81166750  0.36662285     0.13400
C2612       C  0.82092140  0.65148967  0.35296254    -0.16200
C2613       C  0.85364392  0.65113287  0.35868351    -0.31300
H2614       H  0.80459697  0.63323286  0.36347578     0.12900
H2615       H  0.86938751  0.66858810  0.34611919     0.13400
C2616       C  0.65022468  0.84890853  0.36311274    -0.16200
C2617       C  0.63818689  0.82895085  0.34076347    -0.31300
H2618       H  0.67683557  0.85350814  0.36434009     0.12900
H2619       H  0.61177237  0.82334349  0.33985648     0.13400
C2620       C  0.84040180  0.85121369  0.16871232    -0.16200
C2621       C  0.86281428  0.83984523  0.14827351    -0.31300
H2622       H  0.83388662  0.87755511  0.16824651     0.12900
H2623       H  0.86842853  0.81329805  0.14767129     0.13400
C2624       C  0.65236302  0.64920623  0.36259062    -0.16200
C2625       C  0.64074279  0.66826599  0.33927115    -0.31300
H2626       H  0.67896378  0.64477264  0.36429668     0.12900
H2627       H  0.61427722  0.67351813  0.33799354     0.13400
C2628       C  0.66270629  0.85858803  0.15924225    -0.16200
C2629       C  0.63731789  0.85017571  0.14094070    -0.31300
H2630       H  0.67086837  0.88444313  0.16040071     0.12900
H2631       H  0.63002254  0.82404684  0.13944549     0.13400
C2632       C  0.85145073  0.66343546  0.16613769    -0.16200
C2633       C  0.84163249  0.63881383  0.14697236    -0.31300
H2634       H  0.87721165  0.67156710  0.16577228     0.12900
H2635       H  0.81561794  0.63147659  0.14675916     0.13400
C2636       C  0.63688684  0.65380158  0.13689199    -0.16200
C2637       C  0.66283944  0.64577853  0.15483796    -0.31300
H2638       H  0.62932104  0.67982246  0.13522137     0.12900
H2639       H  0.67118686  0.61998299  0.15586280     0.13400
N2640       N  0.71256168  0.82111499  0.72539150    -0.05900
N2641       N  0.70784696  0.84449333  0.70417081    -0.58000
N2642       N  0.69445441  0.79842822  0.79736730    -0.05500
N2643       N  0.67387895  0.80866960  0.81922804    -0.60100
N2644       N  0.72038819  0.81838577  0.79599263    -0.05100
N2645       N  0.71779761  0.84278811  0.81648408    -0.58000
N2646       N  0.68739925  0.80017394  0.72584450    -0.04800
N2647       N  0.66496951  0.80880292  0.70474398    -0.60500
C2648       C  0.67824474  0.83638170  0.69135926     0.96300
C2649       C  0.68893278  0.83618317  0.83108403     0.96100
N2650       N  0.70471904  0.69462387  0.79514734    -0.06000
N2651       N  0.69500289  0.67166590  0.81537268    -0.58600
N2652       N  0.67784111  0.72121707  0.72545400    -0.04200
N2653       N  0.65319986  0.71851549  0.70514502    -0.59800
N2654       N  0.69786312  0.69524628  0.72359029    -0.06100
N2655       N  0.68746944  0.67467081  0.70149749    -0.58800
N2656       N  0.68438810  0.72040089  0.79600703    -0.03800
N2657       N  0.66065541  0.71551755  0.81655286    -0.59900
Mn2658     Mn  0.68526981  0.76014542  0.76112660     1.18400
C2659       C  0.66773275  0.68534732  0.82877495     0.98400
C2660       C  0.65969285  0.68961271  0.69012855     0.99100
N2661       N  0.79818021  0.80872360  0.78812832    -0.06100
N2662       N  0.80913715  0.82834151  0.81067192    -0.62400
N2663       N  0.80828210  0.78713789  0.71288978    -0.04900
N2664       N  0.82919754  0.79438271  0.69018645    -0.63100
N2665       N  0.78813920  0.81249280  0.71762622    -0.05600
N2666       N  0.79444625  0.83711132  0.69827526    -0.62700
N2667       N  0.81908781  0.78399966  0.78348060    -0.04500
N2668       N  0.84474439  0.78629110  0.80268647    -0.63400
Mn2669     Mn  0.75494077  0.81571810  0.75713076     1.10700
C2670       C  0.83809022  0.81388103  0.81964503     0.99600
C2671       C  0.81981172  0.82551531  0.68119591     0.99700
N2672       N  0.77536051  0.68507197  0.71669540    -0.05600
N2673       N  0.77763594  0.65995273  0.69684525    -0.61000
N2674       N  0.81019137  0.70710311  0.78321927    -0.04900
N2675       N  0.83481112  0.70072800  0.80264755    -0.57700
N2676       N  0.78502468  0.68666686  0.78799065    -0.06200
N2677       N  0.79242611  0.66568881  0.81096848    -0.60500
N2678       N  0.79983606  0.70645350  0.71244434    -0.05200
N2679       N  0.81919184  0.69615906  0.68957135    -0.57700
Mn2680     Mn  0.74068195  0.68928726  0.75622675     1.20200
Mn2681     Mn  0.81009917  0.74600726  0.74732791     1.10100
Cl2682     Cl  0.74772985  0.75260504  0.75539892    -0.85700
C2683       C  0.80481834  0.66732486  0.67982588     0.96600
C2684       C  0.82356796  0.67507540  0.81992404     0.96400
C2685       C  0.87360735  0.86909839  0.88562208     0.86800
C2686       C  0.89672613  0.84774725  0.90661293    -0.53500
C2687       C  0.91671412  0.86646840  0.92573347     0.09700
C2688       C  0.91126077  0.90447776  0.92221555     0.20600
C2689       C  0.85411906  0.89146190  0.90826023    -0.54200
C2690       C  0.87371827  0.91002539  0.92737602     0.09800
C2691       C  0.89696458  0.89315878  0.86814231    -0.53700
C2692       C  0.91676430  0.91167628  0.88737166     0.10300
H2693       H  0.89746556  0.82064579  0.90612188     0.14900
H2694       H  0.92726942  0.91976285  0.93784815     0.00600
H2695       H  0.82716706  0.89256450  0.90916361     0.15200
H2696       H  0.89731137  0.89579091  0.84298001     0.15000
C2697       C  0.85815400  0.61792992  0.88578671     0.86800
C2698       C  0.88397166  0.59681520  0.86799298    -0.53500
C2699       C  0.90543502  0.57984455  0.88687439     0.09700
C2700       C  0.89885018  0.58529428  0.92185568     0.20600
C2701       C  0.84070917  0.59301354  0.90768512    -0.57900
C2702       C  0.86202303  0.57598865  0.92665259     0.09800
C2703       C  0.87896326  0.64069483  0.90768977    -0.53700
C2704       C  0.90042902  0.62341379  0.92659610     0.10300
H2705       H  0.88462057  0.59479658  0.84278990     0.14900
H2706       H  0.91616820  0.57117910  0.93722741     0.00600
H2707       H  0.81396345  0.58950945  0.90847774     0.15200
H2708       H  0.87747832  0.66777049  0.90761068     0.15000
C2709       C  0.62593187  0.87589068  0.88724302     0.86800
C2710       C  0.64584763  0.89887559  0.90952174    -0.53500
C2711       C  0.62632432  0.92024516  0.92616966     0.09700
C2712       C  0.58880568  0.91626589  0.91907460     0.20600
C2713       C  0.60072994  0.85794664  0.90812583    -0.54200
C2714       C  0.58130105  0.87906417  0.92466654     0.09800
C2715       C  0.60474267  0.89960464  0.86677521    -0.53700
C2716       C  0.58500467  0.92063206  0.88357421     0.10300
H2717       H  0.67272665  0.89839466  0.91177789     0.14900
H2718       H  0.57278422  0.93334383  0.93281681     0.00600
H2719       H  0.59868402  0.83096466  0.91010411     0.15200
H2720       H  0.60449665  0.89894556  0.84150407     0.15000
C2721       C  0.62811571  0.62075349  0.88434965     0.86800
C2722       C  0.60592738  0.59866612  0.86330129    -0.53500
C2723       C  0.58416071  0.57915244  0.87942012     0.09700
C2724       C  0.58657214  0.58371949  0.91507747     0.20600
C2725       C  0.60367923  0.64096985  0.90476097    -0.54200
C2726       C  0.58171258  0.62140070  0.92072462     0.09800
C2727       C  0.64503899  0.59635166  0.90707434    -0.53700
C2728       C  0.62332810  0.57723478  0.92340705     0.10300
H2729       H  0.60761960  0.59821184  0.83808115     0.14900
H2730       H  0.56894874  0.56777183  0.92829274     0.00600
H2731       H  0.60386803  0.66801843  0.90656824     0.15200
H2732       H  0.67176705  0.59464055  0.91036878     0.15000
N2733       N  0.99996541  0.94991197  0.87546187    -0.36300
N2734       N  0.94269119  0.49528413  0.87453061    -0.56900
N2735       N  0.99119268  0.54918411  0.87463795    -0.36300
N2736       N  0.55074247  0.49464536  0.86610687    -0.56900
C2737       C  0.97346478  0.92966584  0.87115729     0.27200
C2738       C  0.52648188  0.93289229  0.86762370     0.27200
C2739       C  0.96279599  0.56588084  0.86806263     0.27200
C2740       C  0.52748976  0.56434327  0.86023555     0.27200
C2741       C  0.92838115  0.97129686  0.87495723     0.35900
C2742       C  0.92138075  0.52132337  0.87447793     0.35900
C2743       C  0.56891702  0.97736366  0.86502650     0.35900
C2744       C  0.57058509  0.52132692  0.86143709     0.35900
C2745       C  0.98402713  0.89884011  0.86069415    -0.21600
C2746       C  0.51707988  0.90081064  0.85972359    -0.21600
C2747       C  0.97012881  0.59517607  0.85250333    -0.21600
C2748       C  0.51777638  0.59326314  0.84522517    -0.21600
C2749       C  0.89536853  0.97994108  0.87217735    -0.22700
C2750       C  0.88909095  0.51013207  0.87217515    -0.22700
C2751       C  0.60022047  0.98783483  0.85644529    -0.22700
C2752       C  0.60193279  0.51112123  0.85280185    -0.22700
C2753       C  0.94007740  0.93820387  0.87658941    -0.18000
C2754       C  0.55973128  0.94391706  0.87007994    -0.18000
C2755       C  0.56062653  0.55470847  0.86502298    -0.18000
C2756       C  0.93051516  0.55516955  0.87562413    -0.18000
H2757       H  0.96856410  0.87791728  0.85397819     0.14900
H2758       H  0.53331495  0.88045301  0.85327748     0.14900
H2759       H  0.95260514  0.61314060  0.84321247     0.14900
H2760       H  0.53379502  0.61177901  0.83468609     0.14900
H2761       H  0.87469673  0.96316093  0.86849104     0.13200
H2762       H  0.86709792  0.52525789  0.86907182     0.13200
H2763       H  0.62097441  0.97219487  0.84998363     0.13200
H2764       H  0.62242865  0.52688327  0.84580585     0.13200
H2765       H  0.99969532  0.97386409  0.88454910     0.26400
H2766       H  0.99327238  0.52707334  0.88722355     0.26400
C2767       C  0.88204738  0.86060938  0.62217516     0.86800
C2768       C  0.90332751  0.88547737  0.64128219    -0.53500
C2769       C  0.92100325  0.90715443  0.62324899     0.09700
C2770       C  0.91588770  0.90173329  0.58806844     0.20600
C2771       C  0.86022343  0.88256830  0.60068239    -0.54200
C2772       C  0.87797922  0.90453575  0.58315625     0.09800
C2773       C  0.90665564  0.84306072  0.60038656    -0.53700
C2774       C  0.92445894  0.86453228  0.58249641     0.10300
H2775       H  0.90470726  0.88551205  0.66653687     0.14900
H2776       H  0.93045161  0.91921559  0.57335223     0.00600
H2777       H  0.83327942  0.88123080  0.59977280     0.15200
H2778       H  0.90940684  0.81612109  0.59882498     0.15000
C2779       C  0.61938956  0.86625154  0.62597283     0.86800
C2780       C  0.59660613  0.89181888  0.64220481    -0.53500
C2781       C  0.57900463  0.91136980  0.62203962     0.09700
C2782       C  0.58579332  0.90334549  0.58750450     0.20600
C2783       C  0.59623865  0.84619904  0.60426648    -0.54200
C2784       C  0.57871766  0.86561804  0.58401158     0.09800
C2785       C  0.64148695  0.88709819  0.60392519    -0.53700
C2786       C  0.62376030  0.90673783  0.58386690     0.10300
H2787       H  0.59415090  0.89379076  0.66730438     0.14900
H2788       H  0.57135165  0.91918770  0.57103762     0.00600
H2789       H  0.59429128  0.81913777  0.60448284     0.15200
H2790       H  0.66846096  0.88708899  0.60473782     0.15000
N2791       N  0.00802186  0.85821439  0.54843944    -0.36300
N2792       N  0.95603732  0.85344315  0.50227603    -0.56900
N2793       N  0.00258537  0.86008832  0.95520817    -0.36300
N2794       N  0.54829632  0.84968257  0.50306328    -0.56900
C2795       C  0.98198721  0.84870337  0.56606507     0.27200
C2796       C  0.52254110  0.84721147  0.56707074     0.27200
C2797       C  0.97567264  0.85180761  0.93788295     0.27200
C2798       C  0.52418369  0.86028032  0.93780278     0.27200
C2799       C  0.93719487  0.84918104  0.52778544     0.35900
C2800       C  0.93342670  0.84758535  0.97905309     0.35900
C2801       C  0.56761516  0.84973744  0.52886290     0.35900
C2802       C  0.56605791  0.86651401  0.97894567     0.35900
C2803       C  0.99316082  0.83249590  0.59251512    -0.21600
C2804       C  0.51133132  0.83155474  0.59371752    -0.21600
C2805       C  0.98569732  0.84179002  0.90863605    -0.21600
C2806       C  0.51595342  0.84594371  0.90954040    -0.21600
C2807       C  0.90558180  0.83914415  0.51963524    -0.22700
C2808       C  0.90285573  0.83617938  0.98881629    -0.22700
C2809       C  0.60056315  0.84648394  0.52091602    -0.22700
C2810       C  0.59844278  0.86413825  0.98920996    -0.22700
C2811       C  0.94847631  0.85363446  0.55832771    -0.18000
C2812       C  0.55598557  0.85229023  0.55956929    -0.18000
C2813       C  0.55655584  0.86770215  0.94764974    -0.18000
C2814       C  0.94233675  0.85295841  0.94777684    -0.18000
H2815       H  0.97816958  0.82103507  0.61043519     0.14900
H2816       H  0.52628559  0.81980274  0.61164313     0.14900
H2817       H  0.96998730  0.83260553  0.88999467     0.14900
H2818       H  0.53283864  0.83739304  0.89172498     0.14900
H2819       H  0.88604366  0.83129462  0.53518495     0.13200
H2820       H  0.88266569  0.82742416  0.97423979     0.13200
H2821       H  0.62124913  0.84314931  0.53673729     0.13200
H2822       H  0.62022162  0.86041994  0.97503640     0.13200
H2823       H  0.00702241  0.87212784  0.52799306     0.26400
H2824       H  0.00230601  0.86999547  0.97748163     0.26400
C2825       C  0.62519121  0.63223512  0.62502879     0.86800
C2826       C  0.60200979  0.65265227  0.60319014    -0.53500
C2827       C  0.58220948  0.63312458  0.58451962     0.09700
C2828       C  0.58760213  0.59530019  0.58968322     0.20600
C2829       C  0.60201652  0.60869950  0.64334013    -0.54200
C2830       C  0.58244265  0.58914748  0.62487309     0.09800
C2831       C  0.64471637  0.60913446  0.60307661    -0.53700
C2832       C  0.62504186  0.58997087  0.58448775     0.10300
H2833       H  0.60152751  0.67975132  0.60242646     0.14900
H2834       H  0.57166311  0.57932072  0.57460580     0.00600
H2835       H  0.60150201  0.60731544  0.66858708     0.15200
H2836       H  0.67166614  0.60787055  0.60232000     0.15000
N2837       N  0.95182731  0.99319564  0.63328139    -0.36300
N2838       N  0.00484443  0.94455536  0.63329893    -0.56900
N2839       N  0.54638710  0.99723864  0.63002027    -0.36300
N2840       N  0.99196180  0.55459795  0.63326946    -0.56900
C2841       C  0.93444899  0.96527442  0.64015471     0.27200
C2842       C  0.92276100  0.52875451  0.63822987     0.27200
C2843       C  0.56342900  0.96946397  0.63820303     0.27200
C2844       C  0.56884782  0.53057051  0.64127486     0.27200
C2845       C  0.97902475  0.92318813  0.63577138     0.35900
C2846       C  0.52007301  0.92676178  0.63277469     0.35900
C2847       C  0.96454595  0.57371469  0.63633331     0.35900
C2848       C  0.52503542  0.57301030  0.64051716     0.35900
C2849       C  0.90400786  0.97397053  0.65249848    -0.21600
C2850       C  0.89215216  0.51815788  0.64881934    -0.21600
C2851       C  0.59196762  0.97823263  0.65426906    -0.21600
C2852       C  0.59798048  0.52134356  0.65611965    -0.21600
C2853       C  0.99036507  0.89082290  0.63851708    -0.22700
C2854       C  0.50945826  0.89424454  0.63596634    -0.22700
C2855       C  0.97336316  0.60619890  0.64298259    -0.22700
C2856       C  0.51449183  0.60436682  0.64926097    -0.22700
C2857       C  0.94527079  0.93225764  0.63518998    -0.18000
C2858       C  0.93161468  0.56238473  0.63322790    -0.18000
C2859       C  0.55838451  0.56374854  0.63672251    -0.18000
C2860       C  0.55360506  0.93649453  0.63171507    -0.18000
H2861       H  0.88512456  0.95716446  0.66117354     0.14900
H2862       H  0.87149627  0.53373774  0.65569750     0.14900
H2863       H  0.60991546  0.96151516  0.66480123     0.14900
H2864       H  0.61616698  0.53776663  0.66671623     0.14900
H2865       H  0.97557810  0.86880500  0.64297221     0.13200
H2866       H  0.52486463  0.87255187  0.63992342     0.13200
H2867       H  0.95679670  0.62637579  0.64909648     0.13200
H2868       H  0.52993528  0.62514889  0.65636151     0.13200
H2869       H  0.97475160  0.99422112  0.62241206     0.26400
H2870       H  0.52465855  0.99825652  0.61679796     0.26400
N2871       N  0.63637158  0.94077378  0.50612123    -0.36300
N2872       N  0.64273628  0.50510332  0.55302665    -0.56900
N2873       N  0.63741130  0.55598934  0.50546382    -0.36300
N2874       N  0.63493657  0.49264377  0.95745559    -0.56900
C2875       C  0.64495700  0.92274672  0.53147969     0.27200
C2876       C  0.64384879  0.93669355  0.98029126     0.27200
C2877       C  0.64229297  0.57534049  0.53077462     0.27200
C2878       C  0.63776593  0.56349049  0.97847310     0.27200
C2879       C  0.64046254  0.96522258  0.57236081     0.35900
C2880       C  0.64266342  0.53215224  0.57175721     0.35900
C2881       C  0.64131474  0.97909860  0.93940130     0.35900
C2882       C  0.63830767  0.51932710  0.93859795     0.35900
C2883       C  0.66081798  0.89371318  0.52253974    -0.21600
C2884       C  0.66091034  0.90867684  0.99025632    -0.21600
C2885       C  0.65218852  0.60690340  0.52167796    -0.21600
C2886       C  0.64950544  0.59461920  0.98705922    -0.21600
C2887       C  0.64376662  0.97491766  0.60297503    -0.22700
C2888       C  0.64755295  0.52272334  0.60230854    -0.22700
C2889       C  0.64952471  0.98919090  0.90977450    -0.22700
C2890       C  0.64731934  0.50928754  0.90913737    -0.22700
C2891       C  0.63852101  0.93187660  0.56237798    -0.18000
C2892       C  0.63889775  0.94566731  0.94895912    -0.18000
C2893       C  0.63362987  0.55268311  0.94753933    -0.18000
C2894       C  0.63793315  0.56525650  0.56180528    -0.18000
H2895       H  0.67139518  0.87481601  0.53765208     0.14900
H2896       H  0.67317641  0.89029855  0.97585138     0.14900
H2897       H  0.65931434  0.62739921  0.53669711     0.14900
H2898       H  0.65794480  0.61431675  0.97176534     0.14900
H2899       H  0.64740052  0.95878324  0.62289012     0.13200
H2900       H  0.65096675  0.53904548  0.62209924     0.13200
H2901       H  0.65725697  0.97335389  0.89077339     0.13200
H2902       H  0.65454032  0.52522259  0.89002662     0.13200
H2903       H  0.62293617  0.96296069  0.50585770     0.26400
H2904       H  0.62845815  0.53172383  0.50533139     0.26400
N2905       N  0.94351642  0.63713290  0.50089045    -0.36300
N2906       N  0.98647548  0.64027763  0.95494088    -0.56900
N2907       N  0.54994855  0.64323583  0.50360025    -0.36300
N2908       N  0.99272165  0.64531311  0.54894036    -0.56900
C2909       C  0.91753791  0.64412162  0.97936355     0.27200
C2910       C  0.92451359  0.64592151  0.52537330     0.27200
C2911       C  0.56439577  0.63748941  0.97423875     0.27200
C2912       C  0.56821569  0.64982251  0.52946314     0.27200
C2913       C  0.95874882  0.64113946  0.93703655     0.35900
C2914       C  0.52296329  0.63780589  0.93192053     0.35900
C2915       C  0.96544651  0.64870509  0.56674144     0.35900
C2916       C  0.52413329  0.64884694  0.56946244     0.35900
C2917       C  0.88824820  0.65843918  0.98946247    -0.21600
C2918       C  0.89583606  0.66144409  0.51514982    -0.21600
C2919       C  0.59504587  0.64798729  0.98500772    -0.21600
C2920       C  0.59911639  0.66152266  0.52077665    -0.21600
C2921       C  0.96717222  0.64521243  0.90620198    -0.22700
C2922       C  0.51405425  0.64120576  0.90109978    -0.22700
C2923       C  0.97381874  0.66137054  0.59555511    -0.22700
C2924       C  0.51364979  0.65726707  0.59894931    -0.22700
C2925       C  0.92582563  0.63860146  0.94792212    -0.18000
C2926       C  0.93314571  0.64127025  0.55666235    -0.18000
C2927       C  0.55773639  0.64570447  0.56066433    -0.18000
C2928       C  0.55587343  0.63406763  0.94264433    -0.18000
H2929       H  0.86840488  0.66834267  0.97507642     0.14900
H2930       H  0.87653017  0.67233431  0.52935833     0.14900
H2931       H  0.61583783  0.65638342  0.97118329     0.14900
H2932       H  0.61874678  0.67010643  0.53610687     0.14900
H2933       H  0.95027567  0.64903555  0.88687951     0.13200
H2934       H  0.53069760  0.64409843  0.88164012     0.13200
H2935       H  0.95701849  0.66886461  0.61382993     0.13200
H2936       H  0.52913950  0.66495936  0.61829736     0.13200
H2937       H  0.96576211  0.62388958  0.50166791     0.26400
H2938       H  0.52641416  0.63271924  0.50318591     0.26400
C2939       C  0.86413671  0.62974105  0.61812207     0.86800
C2940       C  0.88816226  0.64876381  0.59657098    -0.53500
C2941       C  0.90785136  0.62865148  0.57912297     0.09700
C2942       C  0.90184535  0.59101599  0.58496385     0.20600
C2943       C  0.84444181  0.60609056  0.59621050    -0.54200
C2944       C  0.86441893  0.58543560  0.57903029     0.09800
C2945       C  0.88659377  0.60645708  0.63777064    -0.53700
C2946       C  0.90632063  0.58605669  0.62034470     0.10300
H2947       H  0.88954292  0.67582666  0.59519502     0.14900
H2948       H  0.91807688  0.57457339  0.57078113     0.00600
H2949       H  0.81751679  0.60566424  0.59454768     0.15200
H2950       H  0.88721478  0.60652511  0.66304739     0.15000
N2951       N  0.86301418  0.99018237  0.55284277    -0.36300
N2952       N  0.85907134  0.93867655  0.50529751    -0.56900
N2953       N  0.86117693  0.99376538  0.95930793    -0.36300
N2954       N  0.85364902  0.54933411  0.49937744    -0.56900
C2955       C  0.85950101  0.96277902  0.57095390     0.27200
C2956       C  0.84993727  0.52629322  0.56572911     0.27200
C2957       C  0.85284503  0.96634444  0.94280176     0.27200
C2958       C  0.84610128  0.51829033  0.94267011     0.27200
C2959       C  0.85611465  0.91902580  0.53058753     0.35900
C2960       C  0.85718445  0.92226401  0.98198829     0.35900
C2961       C  0.85090206  0.56984278  0.52425239     0.35900
C2962       C  0.85084292  0.56222045  0.98217847     0.35900
C2963       C  0.85118160  0.97243622  0.60076063    -0.21600
C2964       C  0.84088027  0.51637219  0.59533251    -0.21600
C2965       C  0.83558495  0.97544712  0.91622052    -0.21600
C2966       C  0.82897422  0.50795322  0.91640750    -0.21600
C2967       C  0.84724788  0.88703386  0.52186417    -0.22700
C2968       C  0.85020247  0.88981845  0.99037705    -0.22700
C2969       C  0.84697276  0.60240466  0.51434315    -0.22700
C2970       C  0.84568714  0.59469257  0.99154083    -0.22700
C2971       C  0.86299483  0.92927800  0.56122279    -0.18000
C2972       C  0.85269670  0.55998237  0.55584608    -0.18000
C2973       C  0.85155056  0.55171013  0.95100896    -0.18000
C2974       C  0.86060790  0.93342432  0.95125299    -0.18000
H2975       H  0.84524003  0.95616256  0.62005892     0.14900
H2976       H  0.83296115  0.53240276  0.61414703     0.14900
H2977       H  0.82494295  0.95896635  0.89886674     0.14900
H2978       H  0.81659541  0.52359158  0.89938005     0.14900
H2979       H  0.84134683  0.86635489  0.53706819     0.13200
H2980       H  0.84430230  0.86935665  0.97490191     0.13200
H2981       H  0.84206286  0.62394208  0.52876233     0.13200
H2982       H  0.83959971  0.61568737  0.97675687     0.13200
H2983       H  0.87060138  0.99030441  0.52987609     0.26400
H2984       H  0.87551461  0.99419301  0.97954157     0.26400
C2985       C  0.86113649  0.82807858  0.84298239    -0.16200
C2986       C  0.85048150  0.85009035  0.86420252    -0.31300
H2987       H  0.88719409  0.82104887  0.84229003     0.12900
H2988       H  0.82406556  0.85570351  0.86522078     0.13400
C2989       C  0.84495807  0.65849811  0.84342199    -0.16200
C2990       C  0.83410943  0.63604579  0.86421959    -0.31300
H2991       H  0.87119290  0.66499338  0.84338246     0.12900
H2992       H  0.80781807  0.62989261  0.86495047     0.13400
C2993       C  0.64622945  0.85117122  0.86892436    -0.16200
C2994       C  0.67269633  0.86006870  0.85213103    -0.31300
H2995       H  0.63840600  0.82515729  0.86878607     0.12900
H2996       H  0.68172554  0.88563742  0.85285336     0.13400
C2997       C  0.83809650  0.84734141  0.65997256    -0.16200
C2998       C  0.86267473  0.83645856  0.64187018    -0.31300
H2999       H  0.83153167  0.87368794  0.65977259     0.12900
H3000       H  0.86883813  0.81002601  0.64139251     0.13400
C3001       C  0.65319859  0.64120553  0.86641915    -0.16200
C3002       C  0.64417940  0.66734353  0.84889061    -0.31300
H3003       H  0.67924812  0.63404284  0.86736546     0.12900
H3004       H  0.61847085  0.67563162  0.84892389     0.13400
C3005       C  0.66164483  0.85694282  0.66756450    -0.16200
C3006       C  0.63814722  0.84443086  0.64867022    -0.31300
H3007       H  0.66902320  0.88295268  0.66539614     0.12900
H3008       H  0.63199340  0.81801925  0.65000086     0.13400
C3009       C  0.82001336  0.64378211  0.65742410    -0.16200
C3010       C  0.84376037  0.65369047  0.63762819    -0.31300
H3011       H  0.81262399  0.61768913  0.65811923     0.12900
H3012       H  0.84988717  0.68012647  0.63657056     0.13400
C3013       C  0.64821028  0.65205716  0.64603424    -0.16200
C3014       C  0.63728743  0.67481107  0.66647498    -0.31300
H3015       H  0.67459974  0.64622116  0.64565819     0.12900
H3016       H  0.61128248  0.68208878  0.66633475     0.13400
loop_ 
_geom_bond_atom_site_label_1 
_geom_bond_atom_site_label_2 
_geom_bond_distance 
_geom_bond_site_symmetry_2 
_ccdc_geom_bond_type 
N1            N2   1.322       .  A
N1            N7   1.316       .  A
N1          Mn30   2.211       .  S
N2            C9   1.354       .  A
N3            N5   1.316       .  A
N3            N4   1.321       .  A
N3          Mn19   2.206       .  S
N4           C10   1.352       .  A
N5            N6   1.320       .  A
N5          Mn30   2.201       .  S
N6           C10   1.353       .  A
N7            N8   1.321       .  A
N7          Mn19   2.205       .  S
N8            C9   1.352       .  A
C9          C366   1.475       .  S
C10         C355   1.472       .  S
N11          N17   1.318       .  A
N11          N12   1.322       .  A
N11         Mn41   2.206       .  S
N12          C20   1.352       .  A
N13          N14   1.322       .  A
N13          N15   1.316       .  A
N13         Mn19   2.211       .  S
N14          C21   1.354       .  A
N15          N16   1.321       .  A
N15         Mn41   2.203       .  S
N16          C21   1.351       .  A
N17          N18   1.320       .  A
N17         Mn19   2.206       .  S
N18          C20   1.352       .  A
Mn19        Cl43   2.547       .  S
C20         C363   1.475       .  S
C21         C375   1.474       .  S
N22          N23   1.322       .  A
N22          N28   1.317       .  A
N22         Mn30   2.211       .  S
N23          C31   1.353       .  A
N24          N26   1.315       .  A
N24          N25   1.320       .  A
N24         Mn42   2.208       .  S
N25          C32   1.355       .  A
N26          N27   1.319       .  A
N26         Mn30   2.177       .  S
N27          C32   1.348       .  A
N28          N29   1.320       .  A
N28         Mn42   2.202       .  S
N29          C31   1.351       .  A
Mn30        Cl43   2.551       .  S
C31         C346   1.472       .  S
C32         C358   1.466       .  S
N33          N34   1.321       .  A
N33          N39   1.315       .  A
N33         Mn41   2.204       .  S
N34          C44   1.353       .  A
N35          N36   1.321       .  A
N35          N37   1.317       .  A
N35         Mn42   2.202       .  S
N36          C45   1.350       .  A
N37          N38   1.325       .  A
N37         Mn41   2.231       .  S
N38          C45   1.358       .  A
N39          N40   1.320       .  A
N39         Mn42   2.198       .  S
N40          C44   1.351       .  A
Mn41        Cl43   2.550       .  S
Mn42        Cl43   2.545       .  S
C44         C370   1.471       .  S
C45         C350   1.483       .  S
C46          C47   1.546       .  S
C46          C52   1.543       .  S
C46          C50   1.543       .  S
C46         C347   1.510       .  S
C47          H54   1.086       .  S
C47          C48   1.365       .  D
C48         C175   1.496       .  S
C48          C49   1.544       .  S
C49          C53   1.539       .  S
C49          C51   1.544       .  S
C49          H55   1.112       .  S
C50          H56   1.086       .  S
C50          C51   1.361       .  D
C51         C335   1.489       .  S
C52          H57   1.086       .  S
C52          C53   1.364       .  D
C53         C114   1.490       .  S
C58          C59   1.546       .  S
C58          C64   1.551       .  S
C58          C62   1.540       .  S
C58         C351   1.519       .  S
C59          H66   1.086       .  S
C59          C60   1.366       .  D
C60         C117   1.492       .  S
C60          C61   1.541       .  S
C61          C65   1.544       .  S
C61          C63   1.543       .  S
C61          H67   1.112       .  S
C62          H68   1.086       .  S
C62          C63   1.358       .  D
C63         C334   1.490       .  S
C64          H69   1.085       .  S
C64          C65   1.371       .  D
C65         C286   1.502       .  S
C70          C71   1.543       .  S
C70          C76   1.543       .  S
C70          C74   1.544       .  S
C70         C354   1.509       .  S
C71          H78   1.086       .  S
C71          C72   1.362       .  D
C72         C253   1.491       .  S
C72          C73   1.544       .  S
C73          C77   1.544       .  S
C73          C75   1.541       .  S
C73          H79   1.112       .  S
C74          H80   1.086       .  S
C74          C75   1.364       .  D
C75         C174   1.489       .  S
C76          H81   1.086       .  S
C76          C77   1.362       .  D
C77         C115   1.493       .  S
C82          C83   1.548       .  S
C82          C88   1.543       .  S
C82          C86   1.542       .  S
C82         C362   1.511       .  S
C83          H90   1.086       .  S
C83          C84   1.366       .  D
C84         C116   1.503       .  S
C84          C85   1.548       .  S
C85          C89   1.543       .  S
C85          C87   1.537       .  S
C85          H91   1.112       .  S
C86          H92   1.086       .  S
C86          C87   1.362       .  D
C87         C289   1.485       .  S
C88          H93   1.086       .  S
C88          C89   1.362       .  D
C89         C254   1.489       .  S
N94          C98   1.350       .  A
N94        C1607   1.352       .  A
N94         H126   1.036       .  S
N95         C103   1.351   1_565  A
N95         C856   1.352       .  A
N96         C100   1.349       .  A
N96        C1609   1.351       .  A
N96         H127   1.039       .  S
N97         C105   1.350   1_565  A
N97         C858   1.349       .  A
C98         C106   1.381       .  A
C98         C114   1.408       .  A
C99        N1602   1.351       .  A
C99         C115   1.408       .  A
C99         C107   1.381       .  A
C100        C108   1.381       .  A
C100        C117   1.403       .  A
C101       N1604   1.353   1_455  A
C101        C116   1.408       .  A
C101        C109   1.381       .  A
C102        N849   1.351       .  A
C102        C114   1.409       .  A
C102        C110   1.379       .  A
C103        C117   1.408       .  A
C103        C111   1.377       .  A
C104        N851   1.349       .  A
C104        C112   1.378       .  A
C104        C115   1.406       .  A
C105        C113   1.378       .  A
C105        C116   1.405       .  A
C106       C1615   1.379       .  A
C106        H118   1.082       .  S
C107       C1614   1.380   1_455  A
C107        H119   1.082       .  S
C108       C1617   1.380       .  A
C108        H120   1.082       .  S
C109       C1616   1.382   1_455  A
C109        H121   1.082       .  S
C110        C865   1.375       .  A
C110        H122   1.080       .  S
C111        C864   1.374   1_545  A
C111        H123   1.081       .  S
C112        C867   1.375       .  A
C112        H124   1.081       .  S
C113        C866   1.378   1_545  A
C113        H125   1.081       .  S
C128        C129   1.542       .  S
C128        C134   1.536       .  S
C128        C132   1.547       .  S
C128        C359   1.503       .  S
C129        H136   1.086       .  S
C129        C130   1.363       .  D
C130        C218   1.494       .  S
C130        C131   1.541       .  S
C131        C135   1.544       .  S
C131        C133   1.543       .  S
C131        H137   1.112       .  S
C132        H138   1.086       .  S
C132        C133   1.366       .  D
C133        C332   1.492       .  S
C134        H139   1.086       .  S
C134        C135   1.356       .  D
C135        C172   1.481       .  S
C140        C141   1.543       .  S
C140        C146   1.544       .  S
C140        C144   1.548       .  S
C140        C367   1.513       .  S
C141        H148   1.086       .  S
C141        C142   1.362       .  D
C142        C221   1.492       .  S
C142        C143   1.542       .  S
C143        C147   1.544       .  S
C143        C145   1.541       .  S
C143        H149   1.112       .  S
C144        H150   1.086       .  S
C144        C145   1.366       .  D
C145        C173   1.493       .  S
C146        H151   1.086       .  S
C146        C147   1.363       .  D
C147        C252   1.491       .  S
N152        C156   1.346       .  A
N152       C1665   1.349       .  A
N152        H184   1.041       .  S
N153        C160   1.346   1_556  A
N153        C538   1.348       .  A
N154        C158   1.353       .  A
N154       C1667   1.348       .  A
N154        H185   1.037       .  S
N155        C162   1.351       .  A
N155        C540   1.347   1_554  A
C156        C164   1.381       .  A
C156        C172   1.395       .  A
C157       N1660   1.352       .  A
C157        C173   1.403       .  A
C157        C165   1.382       .  A
C158        C166   1.381       .  A
C158        C175   1.408       .  A
C159       N1662   1.349       .  A
C159        C174   1.404       .  A
C159        C167   1.380       .  A
C160        C172   1.400       .  A
C160        C168   1.377       .  A
C161        N530   1.350       .  A
C161        C175   1.404       .  A
C161        C169   1.377       .  A
C162        C170   1.375       .  A
C162        C173   1.401       .  A
C163        N532   1.351       .  A
C163        C171   1.378       .  A
C163        C174   1.407       .  A
C164       C1673   1.377       .  A
C164        H176   1.082       .  S
C165       C1672   1.380   1_455  A
C165        H177   1.082       .  S
C166       C1675   1.380       .  A
C166        H178   1.082       .  S
C167       C1674   1.378   1_455  A
C167        H179   1.082       .  S
C168        C546   1.376   1_554  A
C168        H180   1.081       .  S
C169        C545   1.374       .  A
C169        H181   1.080       .  S
C170        C548   1.371   1_554  A
C170        H182   1.080       .  S
C171        C547   1.375       .  A
C171        H183   1.081       .  S
C186        C187   1.545       .  S
C186        C192   1.545       .  S
C186        C190   1.543       .  S
C186        C374   1.512       .  S
C187        H194   1.086       .  S
C187        C188   1.364       .  D
C188        C288   1.495       .  S
C188        C189   1.543       .  S
C189        C193   1.543       .  S
C189        C191   1.546       .  S
C189        H195   1.111       .  S
C190        H196   1.086       .  S
C190        C191   1.362       .  D
C191        C220   1.493       .  S
C192        H197   1.086       .  S
C192        C193   1.364       .  D
C193        C255   1.492       .  S
N198        C202   1.352       .  A
N198        C957   1.351       .  A
N198        H230   1.036       .  S
N199        C206   1.352       .  A
N199       C1715   1.350       .  A
N200        C204   1.350       .  A
N200        C959   1.349       .  A
N200        H231   1.040       .  S
N201        C208   1.349       .  A
N201       C1717   1.349       .  A
C202        C210   1.380       .  A
C202        C218   1.407       .  A
C203        N952   1.351       .  A
C203        C219   1.407       .  A
C203        C211   1.381       .  A
C204        C212   1.382       .  A
C204        C221   1.404       .  A
C205        N954   1.349       .  A
C205        C220   1.402       .  A
C205        C213   1.382       .  A
C206        C218   1.409       .  A
C206        C214   1.378       .  A
C207       N1707   1.350       .  A
C207        C221   1.406       .  A
C207        C215   1.377       .  A
C208        C216   1.378       .  A
C208        C219   1.406       .  A
C209       N1709   1.349   1_455  A
C209        C217   1.377       .  A
C209        C220   1.404       .  A
C210        C965   1.377       .  A
C210        H222   1.081       .  S
C211        C964   1.378   1_545  A
C211        H223   1.081       .  S
C212        C967   1.380       .  A
C212        H224   1.082       .  S
C213        C966   1.381   1_545  A
C213        H225   1.082       .  S
C214       C1723   1.373       .  A
C214        H226   1.080       .  S
C215       C1722   1.373   1_455  A
C215        H227   1.080       .  S
C216       C1725   1.375       .  A
C216        H228   1.080       .  S
C217       C1724   1.375   1_455  A
C217        H229   1.081       .  S
C219        C307   1.491       .  S
N232        C236   1.350   1_556  A
N232        C614   1.352       .  A
N232        H264   1.040       .  S
N233        C241   1.351       .  A
N233        C994   1.350   1_545  A
N234        C238   1.351       .  A
N234        C616   1.350   1_554  A
N234        H265   1.038       .  S
N235        C243   1.348       .  A
N235        C996   1.347   1_545  A
C236        C244   1.382       .  A
C236        C252   1.406       .  A
C237        N609   1.351       .  A
C237        C253   1.403       .  A
C237        C245   1.380       .  A
C238        C246   1.382       .  A
C238        C255   1.406       .  A
C239        N611   1.352       .  A
C239        C254   1.407       .  A
C239        C247   1.381       .  A
C240        N987   1.349       .  A
C240        C252   1.403       .  A
C240        C248   1.378       .  A
C241        C255   1.406       .  A
C241        C249   1.378       .  A
C242        N989   1.347       .  A
C242        C250   1.378       .  A
C242        C253   1.402       .  A
C243        C251   1.377       .  A
C243        C254   1.400       .  A
C244        C622   1.381   1_554  A
C244        H256   1.082       .  S
C245        C621   1.380       .  A
C245        H257   1.082       .  S
C246        C624   1.380   1_554  A
C246        H258   1.082       .  S
C247        C623   1.381       .  A
C247        H259   1.082       .  S
C248       C1003   1.373       .  A
C248        H260   1.080       .  S
C249       C1002   1.373   1_545  A
C249        H261   1.080       .  S
C250       C1005   1.375       .  A
C250        H262   1.081       .  S
C251       C1004   1.372   1_545  A
C251        H263   1.081       .  S
N266        C271   1.349   1_556  A
N266        C647   1.352       .  A
N266        H298   1.038   1_556  S
N267        C274   1.354       .  A
N267       C1783   1.352       .  A
N268        C273   1.351       .  A
N268        C649   1.351   1_554  A
N268        H299   1.034       .  S
N269        C276   1.348       .  A
N269       C1785   1.351       .  A
C270        N643   1.353       .  A
C270        C278   1.381       .  A
C270        C286   1.406       .  A
C271        C287   1.405       .  A
C271        C279   1.382       .  A
C272        N645   1.349       .  A
C272        C280   1.383       .  A
C272        C289   1.414       .  A
C273        C288   1.410       .  A
C273        C281   1.381       .  A
C274        C286   1.411       .  A
C274        C282   1.377       .  A
C275       N1775   1.348   1_455  A
C275        C289   1.409       .  A
C275        C283   1.381       .  A
C276        C284   1.378       .  A
C276        C287   1.405       .  A
C277       N1777   1.350   1_455  A
C277        C285   1.379       .  A
C277        C288   1.409       .  A
C278        C656   1.380       .  A
C278        H290   1.082       .  S
C279        C655   1.382   1_554  A
C279        H291   1.082       .  S
C280        C658   1.382       .  A
C280        H292   1.081       .  S
C281        C657   1.378   1_554  A
C281        H293   1.081       .  S
C282       C1791   1.376       .  A
C282        H294   1.080       .  S
C283       C1790   1.374   1_455  A
C283        H295   1.081       .  S
C284       C1793   1.377       .  A
C284        H296   1.082       .  S
C285       C1792   1.376   1_455  A
C285        H297   1.081       .  S
C287        C302   1.492       .  S
C300        C301   1.545       .  S
C300        C306   1.541       .  S
C300        C304   1.543       .  S
C300        C371   1.509       .  S
C301        H308   1.086       .  S
C301        C302   1.363       .  D
C302        C303   1.547       .  S
C303        C307   1.542       .  S
C303        C305   1.543       .  S
C303        H309   1.112       .  S
C304        H310   1.086       .  S
C304        C305   1.364       .  D
C305        C333   1.493       .  S
C306        H311   1.086       .  S
C306        C307   1.361       .  D
N312        C316   1.350       .  A
N312       C1071   1.350       .  A
N312        H344   1.037       .  S
N313        C320   1.348   1_556  A
N313        C698   1.348       .  A
N314        C318   1.351       .  A
N314       C1073   1.352       .  A
N314        H345   1.040       .  S
N315        C322   1.351   1_556  A
N315        C700   1.350       .  A
C316        C324   1.381       .  A
C316        C332   1.405       .  A
C317       N1066   1.351   1_545  A
C317        C333   1.409       .  A
C317        C325   1.383       .  A
C318        C326   1.380       .  A
C318        C335   1.403       .  A
C319       N1068   1.352   1_545  A
C319        C334   1.406       .  A
C319        C327   1.382       .  A
C320        C332   1.404       .  A
C320        C328   1.377       .  A
C321        N690   1.346       .  A
C321        C335   1.399       .  A
C321        C329   1.379       .  A
C322        C330   1.377       .  A
C322        C333   1.407       .  A
C323        N692   1.347       .  A
C323        C331   1.378       .  A
C323        C334   1.402       .  A
C324       C1079   1.381       .  A
C324        H336   1.082       .  S
C325       C1078   1.381   1_545  A
C325        H337   1.081       .  S
C326       C1081   1.380       .  A
C326        H338   1.082       .  S
C327       C1080   1.379   1_545  A
C327        H339   1.082       .  S
C328        C706   1.376   1_554  A
C328        H340   1.081       .  S
C329        C705   1.375       .  A
C329        H341   1.081       .  S
C330        C708   1.372   1_554  A
C330        H342   1.080       .  S
C331        C707   1.372       .  A
C331        H343   1.080       .  S
C346        H348   1.086       .  S
C346        C347   1.345       .  D
C347        H349   1.087       .  S
C350        H352   1.086       .  S
C350        C351   1.341       .  D
C351        H353   1.087       .  S
C354        H356   1.087       .  S
C354        C355   1.342       .  D
C355        H357   1.086       .  S
C358        H360   1.086       .  S
C358        C359   1.336       .  D
C359        H361   1.088       .  S
C362        H364   1.087       .  S
C362        C363   1.343       .  D
C363        H365   1.086       .  S
C366        H368   1.086       .  S
C366        C367   1.343       .  D
C367        H369   1.087       .  S
C370        H372   1.086       .  S
C370        C371   1.343       .  D
C371        H373   1.087       .  S
C374        H376   1.087       .  S
C374        C375   1.343       .  D
C375        H377   1.086       .  S
N378        N379   1.321       .  A
N378        N384   1.316       .  A
N378       Mn407   2.208       .  S
N379        C386   1.355       .  A
N380        N382   1.317       .  A
N380        N381   1.323       .  A
N380       Mn396   2.218       .  S
N381        C387   1.357       .  A
N382        N383   1.319       .  A
N382       Mn407   2.191       .  S
N383        C387   1.347       .  A
N384        N385   1.319       .  A
N384       Mn396   2.194       .  S
N385        C386   1.349       .  A
C386        C743   1.470       .  S
C387        C732   1.476       .  S
N388        N394   1.317       .  A
N388        N389   1.320       .  A
N388       Mn418   2.206       .  S
N389        C397   1.351       .  A
N390        N391   1.322       .  A
N390        N392   1.317       .  A
N390       Mn396   2.209       .  S
N391        C398   1.352       .  A
N392        N393   1.323       .  A
N392       Mn418   2.221       .  S
N393        C398   1.356       .  A
N394        N395   1.323       .  A
N394       Mn396   2.209       .  S
N395        C397   1.355       .  A
Mn396      Cl420   2.556       .  S
C397        C740   1.477       .  S
C398        C752   1.480       .  S
N399        N400   1.321       .  A
N399        N405   1.315       .  A
N399       Mn407   2.211       .  S
N400        C408   1.356       .  A
N401        N403   1.317       .  A
N401        N402   1.322       .  A
N401       Mn419   2.208       .  S
N402        C409   1.355       .  A
N403        N404   1.319       .  A
N403       Mn407   2.192       .  S
N404        C409   1.347       .  A
N405        N406   1.319       .  A
N405       Mn419   2.186       .  S
N406        C408   1.348       .  A
Mn407      Cl420   2.535       .  S
C408        C723   1.471       .  S
C409        C735   1.471       .  S
N410        N411   1.320       .  A
N410        N416   1.317       .  A
N410       Mn418   2.204       .  S
N411        C421   1.350       .  A
N412        N413   1.319       .  A
N412        N414   1.316       .  A
N412       Mn419   2.194       .  S
N413        C422   1.348       .  A
N414        N415   1.324       .  A
N414       Mn418   2.223       .  S
N415        C422   1.358       .  A
N416        N417   1.321       .  A
N416       Mn419   2.202       .  S
N417        C421   1.354       .  A
Mn418      Cl420   2.539       .  S
Mn419      Cl420   2.555       .  S
C421        C747   1.475       .  S
C422        C727   1.477       .  S
C423        C424   1.547       .  S
C423        C429   1.544       .  S
C423        C427   1.538       .  S
C423        C724   1.507       .  S
C424        H431   1.086       .  S
C424        C425   1.368       .  D
C425        C552   1.490       .  S
C425        C426   1.542       .  S
C426        C430   1.542       .  S
C426        C428   1.547       .  S
C426        H432   1.111       .  S
C427        H433   1.086       .  S
C427        C428   1.356       .  D
C428        C712   1.489       .  S
C429        H434   1.086       .  S
C429        C430   1.364       .  D
C430        C491   1.496       .  S
C435        C436   1.544       .  S
C435        C441   1.551       .  S
C435        C439   1.540       .  S
C435        C728   1.514       .  S
C436        H443   1.086       .  S
C436        C437   1.362       .  D
C437        C494   1.491       .  S
C437        C438   1.542       .  S
C438        C442   1.543       .  S
C438        C440   1.544       .  S
C438        H444   1.112       .  S
C439        H445   1.086       .  S
C439        C440   1.360       .  D
C440        C711   1.490       .  S
C441        H446   1.085       .  S
C441        C442   1.370       .  D
C442        C663   1.499       .  S
C447        C448   1.549       .  S
C447        C453   1.547       .  S
C447        C451   1.536       .  S
C447        C731   1.512       .  S
C448        H455   1.085       .  S
C448        C449   1.367       .  D
C449        C630   1.499       .  S
C449        C450   1.546       .  S
C450        C454   1.541       .  S
C450        C452   1.539       .  S
C450        H456   1.112       .  S
C451        H457   1.086       .  S
C451        C452   1.356       .  D
C452        C551   1.483       .  S
C453        H458   1.086       .  S
C453        C454   1.367       .  D
C454        C492   1.493       .  S
C459        C460   1.547       .  S
C459        C465   1.545       .  S
C459        C463   1.543       .  S
C459        C739   1.516       .  S
C460        H467   1.086       .  S
C460        C461   1.366       .  D
C461        C493   1.495       .  S
C461        C462   1.543       .  S
C462        C466   1.543       .  S
C462        C464   1.542       .  S
C462        H468   1.112       .  S
C463        H469   1.086       .  S
C463        C464   1.364       .  D
C464        C666   1.495       .  S
C465        H470   1.086       .  S
C465        C466   1.363       .  D
C466        C631   1.493       .  S
N471       C1984   1.352       .  A
N471        C475   1.353       .  A
N471        H503   1.036       .  S
N472       C1233   1.349   1_545  A
N472        C480   1.348       .  A
N473       C1986   1.351       .  A
N473        C477   1.352       .  A
N473        H504   1.040       .  S
N474       C1235   1.349   1_545  A
N474        C482   1.349       .  A
C475        C483   1.381       .  A
C475        C491   1.412       .  A
C476       N1979   1.351   1_455  A
C476        C492   1.409       .  A
C476        C484   1.381       .  A
C477        C485   1.382       .  A
C477        C494   1.406       .  A
C478       N1981   1.352   1_455  A
C478        C493   1.404       .  A
C478        C486   1.380       .  A
C479       N1226   1.351       .  A
C479        C491   1.409       .  A
C479        C487   1.378       .  A
C480        C494   1.403       .  A
C480        C488   1.377       .  A
C481       N1228   1.349       .  A
C481        C489   1.379       .  A
C481        C492   1.405       .  A
C482        C490   1.379       .  A
C482        C493   1.405       .  A
C483       C1992   1.380       .  A
C483        H495   1.081       .  S
C484       C1991   1.380   1_455  A
C484        H496   1.082       .  S
C485       C1994   1.381       .  A
C485        H497   1.082       .  S
C486       C1993   1.380   1_455  A
C486        H498   1.082       .  S
C487       C1242   1.371       .  A
C487        H499   1.080       .  S
C488       C1241   1.372   1_545  A
C488        H500   1.080       .  S
C489       C1244   1.377       .  A
C489        H501   1.082       .  S
C490       C1243   1.378   1_545  A
C490        H502   1.082       .  S
C505        C506   1.550       .  S
C505        C511   1.537       .  S
C505        C509   1.543       .  S
C505        C736   1.509       .  S
C506        H513   1.085       .  S
C506        C507   1.370       .  D
C507        C595   1.499       .  S
C507        C508   1.540       .  S
C508        C512   1.546       .  S
C508        C510   1.543       .  S
C508        H514   1.112       .  S
C509        H515   1.086       .  S
C509        C510   1.361       .  D
C510        C709   1.487       .  S
C511        H516   1.086       .  S
C511        C512   1.358       .  D
C512        C549   1.487       .  S
C517        C518   1.543       .  S
C517        C523   1.541       .  S
C517        C521   1.545       .  S
C517        C744   1.508       .  S
C518        H525   1.086       .  S
C518        C519   1.363       .  D
C519        C598   1.494       .  S
C519        C520   1.545       .  S
C520        C524   1.543       .  S
C520        C522   1.542       .  S
C520        H526   1.112       .  S
C521        H527   1.086       .  S
C521        C522   1.363       .  D
C522        C550   1.488       .  S
C523        H528   1.086       .  S
C523        C524   1.362       .  D
C524        C629   1.490       .  S
N529       C2042   1.352       .  A
N529        C533   1.349       .  A
N529        H561   1.040       .  S
N530        C537   1.347       .  A
N531       C2044   1.348       .  A
N531        C535   1.351       .  A
N531        H562   1.036       .  S
N532        C539   1.349       .  A
C533        C541   1.383       .  A
C533        C549   1.405       .  A
C534       N2037   1.349       .  A
C534        C550   1.400       .  A
C534        C542   1.381       .  A
C535        C543   1.381       .  A
C535        C552   1.405       .  A
C536       N2039   1.349   1_455  A
C536        C551   1.408       .  A
C536        C544   1.382       .  A
C537        C549   1.402       .  A
C537        C545   1.378       .  A
C538        C552   1.403       .  A
C538        C546   1.377       .  A
C539        C547   1.378       .  A
C539        C550   1.404       .  A
C540        C548   1.379       .  A
C540        C551   1.405       .  A
C541       C2050   1.380       .  A
C541        H553   1.082       .  S
C542       C2049   1.379   1_455  A
C542        H554   1.082       .  S
C543       C2052   1.381       .  A
C543        H555   1.082       .  S
C544       C2051   1.379   1_455  A
C544        H556   1.081       .  S
C545        H557   1.080       .  S
C546        H558   1.081       .  S
C547        H559   1.081       .  S
C548        H560   1.080       .  S
C563        C564   1.553       .  S
C563        C569   1.541       .  S
C563        C567   1.542       .  S
C563        C751   1.516       .  S
C564        H571   1.085       .  S
C564        C565   1.373       .  D
C565        C665   1.501       .  S
C565        C566   1.542       .  S
C566        C570   1.540       .  S
C566        C568   1.547       .  S
C566        H572   1.112       .  S
C567        H573   1.086       .  S
C567        C568   1.361       .  D
C568        C597   1.495       .  S
C569        H574   1.086       .  S
C569        C570   1.360       .  D
C570        C632   1.486       .  S
N575       C1334   1.353       .  A
N575        C579   1.353       .  A
N575        H607   1.037       .  S
N576        C583   1.353       .  A
N576       C2092   1.352       .  A
N577       C1336   1.351       .  A
N577        C581   1.351       .  A
N577        H608   1.041       .  S
N578        C585   1.350       .  A
N578       C2094   1.349       .  A
C579        C587   1.381       .  A
C579        C595   1.412       .  A
C580       N1329   1.350   1_545  A
C580        C596   1.405       .  A
C580        C588   1.381       .  A
C581        C589   1.382       .  A
C581        C598   1.404       .  A
C582       N1331   1.350   1_545  A
C582        C597   1.401       .  A
C582        C590   1.381       .  A
C583        C595   1.411       .  A
C583        C591   1.378       .  A
C584       N2084   1.351   1_455  A
C584        C598   1.406       .  A
C584        C592   1.377       .  A
C585        C593   1.379       .  A
C585        C596   1.406       .  A
C586       N2086   1.350       .  A
C586        C594   1.377       .  A
C586        C597   1.403       .  A
C587       C1342   1.382       .  A
C587        H599   1.082       .  S
C588       C1341   1.381   1_545  A
C588        H600   1.082       .  S
C589       C1344   1.380       .  A
C589        H601   1.082       .  S
C590       C1343   1.378   1_545  A
C590        H602   1.082       .  S
C591       C2100   1.374       .  A
C591        H603   1.080       .  S
C592       C2099   1.374   1_455  A
C592        H604   1.080       .  S
C593       C2102   1.377       .  A
C593        H605   1.082       .  S
C594       C2101   1.376   1_455  A
C594        H606   1.081       .  S
C596        C684   1.493       .  S
N609        C613   1.351       .  A
N609        H641   1.040       .  S
N610       C1371   1.350   1_545  A
N610        C618   1.349       .  A
N611        C615   1.349       .  A
N611        H642   1.038       .  S
N612       C1373   1.350   1_545  A
N612        C620   1.349       .  A
C613        C621   1.381       .  A
C613        C629   1.406       .  A
C614        C630   1.406       .  A
C614        C622   1.382       .  A
C615        C623   1.382       .  A
C615        C632   1.406       .  A
C616        C631   1.405       .  A
C616        C624   1.382       .  A
C617       N1364   1.349       .  A
C617        C629   1.402       .  A
C617        C625   1.377       .  A
C618        C632   1.405       .  A
C618        C626   1.379       .  A
C619       N1366   1.350       .  A
C619        C627   1.376       .  A
C619        C630   1.404       .  A
C620        C628   1.377       .  A
C620        C631   1.405       .  A
C621        H633   1.082       .  S
C622        H634   1.082       .  S
C623        H635   1.082       .  S
C624        H636   1.082       .  S
C625       C1380   1.371       .  A
C625        H637   1.080       .  S
C626       C1379   1.372   1_545  A
C626        H638   1.080       .  S
C627       C1382   1.375       .  A
C627        H639   1.081       .  S
C628       C1381   1.375   1_545  A
C628        H640   1.081       .  S
N643        C648   1.351       .  A
N643        H675   1.040       .  S
N644        C651   1.352       .  A
N644       C2160   1.350       .  A
N645        C650   1.357       .  A
N645        H676   1.033       .  S
N646        C653   1.349       .  A
N646       C2162   1.350       .  A
C647        C655   1.382       .  A
C647        C663   1.406       .  A
C648        C664   1.406       .  A
C648        C656   1.382       .  A
C649        C657   1.381       .  A
C649        C666   1.410       .  A
C650        C665   1.414       .  A
C650        C658   1.379       .  A
C651        C663   1.407       .  A
C651        C659   1.376       .  A
C652       N2152   1.353   1_455  A
C652        C666   1.412       .  A
C652        C660   1.378       .  A
C653        C661   1.378       .  A
C653        C664   1.405       .  A
C654       N2154   1.349   1_455  A
C654        C662   1.378       .  A
C654        C665   1.404       .  A
C655        H667   1.082       .  S
C656        H668   1.082       .  S
C657        H669   1.081       .  S
C658        H670   1.082       .  S
C659       C2168   1.374       .  A
C659        H671   1.081       .  S
C660       C2167   1.376   1_455  A
C660        H672   1.080       .  S
C661       C2170   1.376       .  A
C661        H673   1.080       .  S
C662       C2169   1.376   1_455  A
C662        H674   1.081       .  S
C664        C679   1.493       .  S
C677        C678   1.541       .  S
C677        C683   1.547       .  S
C677        C681   1.544       .  S
C677        C748   1.511       .  S
C678        H685   1.086       .  S
C678        C679   1.359       .  D
C679        C680   1.546       .  S
C680        C684   1.542       .  S
C680        C682   1.542       .  S
C680        H686   1.112       .  S
C681        H687   1.086       .  S
C681        C682   1.365       .  D
C682        C710   1.492       .  S
C683        H688   1.086       .  S
C683        C684   1.366       .  D
N689       C1448   1.351       .  A
N689        C693   1.350       .  A
N689        H721   1.035       .  S
N690        C697   1.346       .  A
N691       C1450   1.348       .  A
N691        C695   1.347       .  A
N691        H722   1.041       .  S
N692        C699   1.349       .  A
C693        C701   1.380       .  A
C693        C709   1.407       .  A
C694       N1443   1.353   1_545  A
C694        C710   1.411       .  A
C694        C702   1.381       .  A
C695        C703   1.381       .  A
C695        C712   1.398       .  A
C696       N1445   1.350   1_545  A
C696        C711   1.406       .  A
C696        C704   1.383       .  A
C697        C709   1.402       .  A
C697        C705   1.380       .  A
C698        C712   1.401       .  A
C698        C706   1.377       .  A
C699        C707   1.378       .  A
C699        C710   1.405       .  A
C700        C708   1.377       .  A
C700        C711   1.405       .  A
C701       C1456   1.380       .  A
C701        H713   1.082       .  S
C702       C1455   1.380   1_545  A
C702        H714   1.081       .  S
C703       C1458   1.379       .  A
C703        H715   1.082       .  S
C704       C1457   1.380   1_545  A
C704        H716   1.082       .  S
C705        H717   1.081       .  S
C706        H718   1.081       .  S
C707        H719   1.080       .  S
C708        H720   1.080       .  S
C723        H725   1.086       .  S
C723        C724   1.337       .  D
C724        H726   1.087       .  S
C727        H729   1.087       .  S
C727        C728   1.340       .  D
C728        H730   1.087       .  S
C731        H733   1.087       .  S
C731        C732   1.337       .  D
C732        H734   1.086       .  S
C735        H737   1.087       .  S
C735        C736   1.339       .  D
C736        H738   1.087       .  S
C739        H741   1.087       .  S
C739        C740   1.344       .  D
C740        H742   1.086       .  S
C743        H745   1.087       .  S
C743        C744   1.340       .  D
C744        H746   1.087       .  S
C747        H749   1.086       .  S
C747        C748   1.341       .  D
C748        H750   1.087       .  S
C751        H753   1.087       .  S
C751        C752   1.343       .  D
C752        H754   1.086       .  S
N755        N756   1.318       .  A
N755        N761   1.315       .  A
N755       Mn784   2.192       .  S
N756        C763   1.351       .  A
N757        N759   1.315       .  A
N757        N758   1.320       .  A
N757       Mn773   2.196       .  S
N758        C764   1.351       .  A
N759        N760   1.318       .  A
N759       Mn784   2.190       .  S
N760        C764   1.351       .  A
N761        N762   1.321       .  A
N761       Mn773   2.196       .  S
N762        C763   1.352       .  A
C763       C1120   1.467       .  S
C764       C1109   1.466       .  S
N765        N771   1.317       .  A
N765        N766   1.323       .  A
N765       Mn795   2.216       .  S
N766        C774   1.354       .  A
N767        N768   1.320       .  A
N767        N769   1.316       .  A
N767       Mn773   2.200       .  S
N768        C775   1.352       .  A
N769        N770   1.322       .  A
N769       Mn795   2.216       .  S
N770        C775   1.354       .  A
N771        N772   1.319       .  A
N771       Mn773   2.198       .  S
N772        C774   1.351       .  A
Mn773      Cl797   2.550       .  S
C774       C1117   1.472       .  S
C775       C1129   1.474       .  S
N776        N777   1.319       .  A
N776        N782   1.316       .  A
N776       Mn784   2.186       .  S
N777        C785   1.349       .  A
N778        N780   1.315       .  A
N778        N779   1.320       .  A
N778       Mn796   2.211       .  S
N779        C786   1.355       .  A
N780        N781   1.318       .  A
N780       Mn784   2.174       .  S
N781        C786   1.347       .  A
N782        N783   1.320       .  A
N782       Mn796   2.215       .  S
N783        C785   1.354       .  A
Mn784      Cl797   2.542       .  S
C785       C1100   1.468       .  S
C786       C1112   1.466       .  S
N787        N788   1.322       .  A
N787        N793   1.317       .  A
N787       Mn795   2.216       .  S
N788        C798   1.354       .  A
N789        N790   1.321       .  A
N789        N791   1.317       .  A
N789       Mn796   2.201       .  S
N790        C799   1.351       .  A
N791        N792   1.324       .  A
N791       Mn795   2.228       .  S
N792        C799   1.357       .  A
N793        N794   1.322       .  A
N793       Mn796   2.210       .  S
N794        C798   1.353       .  A
Mn795      Cl797   2.548       .  S
Mn796      Cl797   2.548       .  S
C798       C1124   1.479       .  S
C799       C1104   1.481       .  S
C800        C801   1.538       .  S
C800        C806   1.544       .  S
C800        C804   1.547       .  S
C800       C1101   1.505       .  S
C801        H808   1.086       .  S
C801        C802   1.358       .  D
C802        C929   1.485       .  S
C802        C803   1.542       .  S
C803        C807   1.541       .  S
C803        C805   1.546       .  S
C803        H809   1.111       .  S
C804        H810   1.086       .  S
C804        C805   1.364       .  D
C805       C1089   1.494       .  S
C806        H811   1.086       .  S
C806        C807   1.365       .  D
C807        C868   1.493       .  S
C812        C813   1.544       .  S
C812        C818   1.550       .  S
C812        C816   1.543       .  S
C812       C1105   1.518       .  S
C813        H820   1.086       .  S
C813        C814   1.364       .  D
C814        C871   1.492       .  S
C814        C815   1.542       .  S
C815        C819   1.546       .  S
C815        C817   1.542       .  S
C815        H821   1.112       .  S
C816        H822   1.086       .  S
C816        C817   1.362       .  D
C817       C1088   1.492       .  S
C818        H823   1.085       .  S
C818        C819   1.370       .  D
C819       C1040   1.502       .  S
C824        C825   1.538       .  S
C824        C830   1.546       .  S
C824        C828   1.541       .  S
C824       C1108   1.503       .  S
C825        H832   1.086       .  S
C825        C826   1.358       .  D
C826       C1007   1.485       .  S
C826        C827   1.544       .  S
C827        C831   1.544       .  S
C827        C829   1.541       .  S
C827        H833   1.112       .  S
C828        H834   1.086       .  S
C828        C829   1.361       .  D
C829        C928   1.484       .  S
C830        H835   1.086       .  S
C830        C831   1.365       .  D
C831        C869   1.496       .  S
C836        C837   1.543       .  S
C836        C842   1.543       .  S
C836        C840   1.545       .  S
C836       C1116   1.509       .  S
C837        H844   1.086       .  S
C837        C838   1.362       .  D
C838        C870   1.494       .  S
C838        C839   1.545       .  S
C839        C843   1.542       .  S
C839        C841   1.540       .  S
C839        H845   1.112       .  S
C840        H846   1.086       .  S
C840        C841   1.366       .  D
C841       C1043   1.492       .  S
C842        H847   1.086       .  S
C842        C843   1.362       .  D
C843       C1008   1.487       .  S
N848       C2361   1.351       .  A
N848        C852   1.351       .  A
N848        H880   1.036       .  S
N849        C857   1.351       .  A
N850       C2363   1.349       .  A
N850        C854   1.350       .  A
N850        H881   1.039       .  S
N851        C859   1.348       .  A
C852        C860   1.381       .  A
C852        C868   1.408       .  A
C853       N2356   1.351   1_455  A
C853        C869   1.410       .  A
C853        C861   1.381       .  A
C854        C862   1.381       .  A
C854        C871   1.403       .  A
C855       N2358   1.351       .  A
C855        C870   1.405       .  A
C855        C863   1.382       .  A
C856        C868   1.409       .  A
C856        C864   1.378       .  A
C857        C871   1.407       .  A
C857        C865   1.377       .  A
C858        C866   1.380       .  A
C858        C869   1.409       .  A
C859        C867   1.377       .  A
C859        C870   1.402       .  A
C860       C2369   1.379       .  A
C860        H872   1.082       .  S
C861       C2368   1.380   1_455  A
C861        H873   1.082       .  S
C862       C2371   1.380       .  A
C862        H874   1.082       .  S
C863       C2370   1.381   1_455  A
C863        H875   1.082       .  S
C864        H876   1.080       .  S
C865        H877   1.081       .  S
C866        H878   1.081       .  S
C867        H879   1.081       .  S
C882        C883   1.543       .  S
C882        C888   1.535       .  S
C882        C886   1.547       .  S
C882       C1113   1.503       .  S
C883        H890   1.086       .  S
C883        C884   1.364       .  D
C884        C972   1.494       .  S
C884        C885   1.542       .  S
C885        C889   1.543       .  S
C885        C887   1.544       .  S
C885        H891   1.112       .  S
C886        H892   1.086       .  S
C886        C887   1.367       .  D
C887       C1086   1.494       .  S
C888        H893   1.086       .  S
C888        C889   1.355       .  D
C889        C926   1.479       .  S
C894        C895   1.543       .  S
C894        C900   1.542       .  S
C894        C898   1.541       .  S
C894       C1121   1.505       .  S
C895        H902   1.086       .  S
C895        C896   1.362       .  D
C896        C975   1.491       .  S
C896        C897   1.543       .  S
C897        C901   1.542       .  S
C897        C899   1.543       .  S
C897        H903   1.112       .  S
C898        H904   1.086       .  S
C898        C899   1.361       .  D
C899        C927   1.488       .  S
C900        H905   1.086       .  S
C900        C901   1.363       .  D
C901       C1006   1.488       .  S
N906       C2419   1.343       .  A
N906        C910   1.345       .  A
N906        H938   1.041       .  S
N907        C914   1.346       .  A
N907       C1292   1.344   1_554  A
N908       C2421   1.351       .  A
N908        C912   1.349       .  A
N908        H939   1.037       .  S
N909        C916   1.349       .  A
N909       C1294   1.349   1_554  A
C910        C918   1.380       .  A
C910        C926   1.391       .  A
C911       N2414   1.350       .  A
C911        C927   1.402       .  A
C911        C919   1.381       .  A
C912        C920   1.382       .  A
C912        C929   1.406       .  A
C913       N2416   1.348       .  A
C913        C928   1.402       .  A
C913        C921   1.381       .  A
C914        C926   1.393       .  A
C914        C922   1.375       .  A
C915       N1284   1.347       .  A
C915        C929   1.402       .  A
C915        C923   1.377       .  A
C916        C924   1.377       .  A
C916        C927   1.402       .  A
C917       N1286   1.349       .  A
C917        C925   1.378       .  A
C917        C928   1.403       .  A
C918       C2427   1.376       .  A
C918        H930   1.082       .  S
C919       C2426   1.379   1_455  A
C919        H931   1.082       .  S
C920       C2429   1.380       .  A
C920        H932   1.081       .  S
C921       C2428   1.379   1_455  A
C921        H933   1.082       .  S
C922       C1300   1.373   1_554  A
C922        H934   1.081       .  S
C923       C1299   1.372       .  A
C923        H935   1.080       .  S
C924       C1302   1.372   1_554  A
C924        H936   1.080       .  S
C925       C1301   1.373       .  A
C925        H937   1.080       .  S
C940        C941   1.546       .  S
C940        C946   1.543       .  S
C940        C944   1.542       .  S
C940       C1128   1.511       .  S
C941        H948   1.086       .  S
C941        C942   1.366       .  D
C942       C1042   1.496       .  S
C942        C943   1.544       .  S
C943        C947   1.542       .  S
C943        C945   1.546       .  S
C943        H949   1.111       .  S
C944        H950   1.086       .  S
C944        C945   1.361       .  D
C945        C974   1.492       .  S
C946        H951   1.086       .  S
C946        C947   1.364       .  D
C947       C1009   1.490       .  S
N952        C956   1.351   1_545  A
N952        H984   1.037       .  S
N953        C960   1.353       .  A
N953       C2469   1.352       .  A
N954        C958   1.350   1_545  A
N954        H985   1.040       .  S
N955        C962   1.350       .  A
N955       C2471   1.349       .  A
C956        C964   1.381       .  A
C956        C972   1.407       .  A
C957        C973   1.407       .  A
C957        C965   1.380       .  A
C958        C966   1.382       .  A
C958        C975   1.404       .  A
C959        C974   1.402       .  A
C959        C967   1.381       .  A
C960        C972   1.411       .  A
C960        C968   1.378       .  A
C961       N2461   1.350       .  A
C961        C975   1.403       .  A
C961        C969   1.377       .  A
C962        C970   1.379       .  A
C962        C973   1.407       .  A
C963       N2463   1.348   1_455  A
C963        C971   1.378       .  A
C963        C974   1.403       .  A
C964        H976   1.081       .  S
C965        H977   1.081       .  S
C966        H978   1.082       .  S
C967        H979   1.082       .  S
C968       C2477   1.374       .  A
C968        H980   1.080       .  S
C969       C2476   1.372   1_455  A
C969        H981   1.081       .  S
C970       C2479   1.377       .  A
C970        H982   1.081       .  S
C971       C2478   1.377   1_455  A
C971        H983   1.081       .  S
C973       C1061   1.494       .  S
N986       C1368   1.351   1_554  A
N986        C990   1.349       .  A
N986       H1018   1.040       .  S
N987        C995   1.350       .  A
N988       C1370   1.350       .  A
N988        C992   1.351   1_556  A
N988       H1019   1.037       .  S
N989        C997   1.348       .  A
C990        C998   1.382       .  A
C990       C1006   1.403       .  A
C991       N1363   1.349       .  A
C991       C1007   1.402       .  A
C991        C999   1.382       .  A
C992       C1000   1.382       .  A
C992       C1009   1.406       .  A
C993       N1365   1.349       .  A
C993       C1008   1.403       .  A
C993       C1001   1.380       .  A
C994       C1006   1.405       .  A
C994       C1002   1.378       .  A
C995       C1009   1.406       .  A
C995       C1003   1.378       .  A
C996       C1004   1.377       .  A
C996       C1007   1.398       .  A
C997       C1005   1.379       .  A
C997       C1008   1.403       .  A
C998       C1376   1.380   1_554  A
C998       H1010   1.082       .  S
C999       C1375   1.380       .  A
C999       H1011   1.082       .  S
C1000      C1378   1.380   1_554  A
C1000      H1012   1.082       .  S
C1001      C1377   1.379       .  A
C1001      H1013   1.082       .  S
C1002      H1014   1.080       .  S
C1003      H1015   1.080       .  S
C1004      H1016   1.080       .  S
C1005      H1017   1.081       .  S
N1020      C1025   1.351   1_556  A
N1020      C1401   1.347       .  A
N1020      H1052   1.040       .  S
N1021      C1028   1.354       .  A
N1021      C2537   1.355       .  A
N1022      C1027   1.352       .  A
N1022      C1403   1.353   1_554  A
N1022      H1053   1.037       .  S
N1023      C1030   1.349       .  A
N1023      C2539   1.347       .  A
C1024      N1397   1.353       .  A
C1024      C1032   1.382       .  A
C1024      C1040   1.410       .  A
C1025      C1041   1.403       .  A
C1025      C1033   1.382       .  A
C1026      N1399   1.352       .  A
C1026      C1034   1.381       .  A
C1026      C1043   1.408       .  A
C1027      C1042   1.411       .  A
C1027      C1035   1.381       .  A
C1028      C1040   1.412       .  A
C1028      C1036   1.377       .  A
C1029      N2529   1.350   1_455  A
C1029      C1043   1.405       .  A
C1029      C1037   1.377       .  A
C1030      C1038   1.375       .  A
C1030      C1041   1.399       .  A
C1031      N2531   1.350   1_455  A
C1031      C1039   1.378       .  A
C1031      C1042   1.408       .  A
C1032      C1410   1.382       .  A
C1032      H1044   1.082       .  S
C1033      C1409   1.381   1_554  A
C1033      H1045   1.082       .  S
C1034      C1412   1.381       .  A
C1034      H1046   1.081       .  S
C1035      C1411   1.380   1_554  A
C1035      H1047   1.081       .  S
C1036      C2545   1.376       .  A
C1036      H1048   1.080       .  S
C1037      C2544   1.372   1_455  A
C1037      H1049   1.080       .  S
C1038      C2547   1.372       .  A
C1038      H1050   1.081       .  S
C1039      C2546   1.375   1_455  A
C1039      H1051   1.081       .  S
C1041      C1056   1.495       .  S
C1054      C1055   1.549       .  S
C1054      C1060   1.544       .  S
C1054      C1058   1.544       .  S
C1054      C1125   1.516       .  S
C1055      H1062   1.085       .  S
C1055      C1056   1.368       .  D
C1056      C1057   1.544       .  S
C1057      C1061   1.541       .  S
C1057      C1059   1.539       .  S
C1057      H1063   1.112       .  S
C1058      H1064   1.086       .  S
C1058      C1059   1.363       .  D
C1059      C1087   1.489       .  S
C1060      H1065   1.086       .  S
C1060      C1061   1.363       .  D
N1066      C1070   1.350       .  A
N1066      H1098   1.036       .  S
N1067      C1074   1.350   1_556  A
N1067      C1452   1.350       .  A
N1068      C1072   1.352       .  A
N1068      H1099   1.040       .  S
N1069      C1076   1.350   1_556  A
N1069      C1454   1.350       .  A
C1070      C1078   1.381       .  A
C1070      C1086   1.407       .  A
C1071      C1087   1.407       .  A
C1071      C1079   1.383       .  A
C1072      C1080   1.379       .  A
C1072      C1089   1.403       .  A
C1073      C1088   1.406       .  A
C1073      C1081   1.382       .  A
C1074      C1086   1.408       .  A
C1074      C1082   1.378       .  A
C1075      N1444   1.347       .  A
C1075      C1089   1.403       .  A
C1075      C1083   1.380       .  A
C1076      C1084   1.378       .  A
C1076      C1087   1.406       .  A
C1077      N1446   1.349       .  A
C1077      C1085   1.377       .  A
C1077      C1088   1.403       .  A
C1078      H1090   1.082       .  S
C1079      H1091   1.082       .  S
C1080      H1092   1.082       .  S
C1081      H1093   1.082       .  S
C1082      C1460   1.378   1_554  A
C1082      H1094   1.081       .  S
C1083      C1459   1.378       .  A
C1083      H1095   1.082       .  S
C1084      C1462   1.371   1_554  A
C1084      H1096   1.080       .  S
C1085      C1461   1.372       .  A
C1085      H1097   1.080       .  S
C1100      H1102   1.086       .  S
C1100      C1101   1.338       .  D
C1101      H1103   1.087       .  S
C1104      H1106   1.086       .  S
C1104      C1105   1.343       .  D
C1105      H1107   1.087       .  S
C1108      H1110   1.087       .  S
C1108      C1109   1.339       .  D
C1109      H1111   1.086       .  S
C1112      H1114   1.086       .  S
C1112      C1113   1.335       .  D
C1113      H1115   1.088       .  S
C1116      H1118   1.087       .  S
C1116      C1117   1.345       .  D
C1117      H1119   1.086       .  S
C1120      H1122   1.086       .  S
C1120      C1121   1.342       .  D
C1121      H1123   1.087       .  S
C1124      H1126   1.086       .  S
C1124      C1125   1.345       .  D
C1125      H1127   1.087       .  S
C1128      H1130   1.087       .  S
C1128      C1129   1.345       .  D
C1129      H1131   1.086       .  S
N1132      N1133   1.317       .  A
N1132      N1138   1.314       .  A
N1132     Mn1161   2.182       .  S
N1133      C1140   1.350       .  A
N1134      N1136   1.315       .  A
N1134      N1135   1.320       .  A
N1134     Mn1150   2.196       .  S
N1135      C1141   1.351       .  A
N1136      N1137   1.321       .  A
N1136     Mn1161   2.207       .  S
N1137      C1141   1.354       .  A
N1138      N1139   1.320       .  A
N1138     Mn1150   2.193       .  S
N1139      C1140   1.351       .  A
C1140      C1497   1.462       .  S
C1141      C1486   1.471       .  S
N1142      N1148   1.318       .  A
N1142      N1143   1.325       .  A
N1142     Mn1172   2.238       .  S
N1143      C1151   1.358       .  A
N1144      N1145   1.317       .  A
N1144      N1146   1.315       .  A
N1144     Mn1150   2.195       .  S
N1145      C1152   1.352       .  A
N1146      N1147   1.319       .  A
N1146     Mn1172   2.183       .  S
N1147      C1152   1.349       .  A
N1148      N1149   1.321       .  A
N1148     Mn1150   2.196       .  S
N1149      C1151   1.350       .  A
Mn1150    Cl1174   2.543       .  S
C1151      C1494   1.483       .  S
C1152      C1506   1.462       .  S
N1153      N1154   1.318       .  A
N1153      N1159   1.317       .  A
N1153     Mn1161   2.177       .  S
N1154      C1162   1.347       .  A
N1155      N1157   1.315       .  A
N1155      N1156   1.321       .  A
N1155     Mn1173   2.211       .  S
N1156      C1163   1.355       .  A
N1157      N1158   1.321       .  A
N1157     Mn1161   2.192       .  S
N1158      C1163   1.350       .  A
N1159      N1160   1.319       .  A
N1159     Mn1173   2.213       .  S
N1160      C1162   1.354       .  A
Mn1161    Cl1174   2.548       .  S
C1162      C1477   1.463       .  S
C1163      C1489   1.474       .  S
N1164      N1165   1.326       .  A
N1164      N1170   1.318       .  A
N1164     Mn1172   2.238       .  S
N1165      C1175   1.358       .  A
N1166      N1167   1.321       .  A
N1166      N1168   1.317       .  A
N1166     Mn1173   2.202       .  S
N1167      C1176   1.350       .  A
N1168      N1169   1.319       .  A
N1168     Mn1172   2.200       .  S
N1169      C1176   1.352       .  A
N1170      N1171   1.321       .  A
N1170     Mn1173   2.203       .  S
N1171      C1175   1.350       .  A
Mn1172    Cl1174   2.551       .  S
Mn1173    Cl1174   2.543       .  S
C1175      C1501   1.484       .  S
C1176      C1481   1.469       .  S
C1177      C1178   1.534       .  S
C1177      C1183   1.542       .  S
C1177      C1181   1.547       .  S
C1177      C1478   1.500       .  S
C1178      H1185   1.086       .  S
C1178      C1179   1.355       .  D
C1179      C1306   1.474       .  S
C1179      C1180   1.540       .  S
C1180      C1184   1.543       .  S
C1180      C1182   1.547       .  S
C1180      H1186   1.112       .  S
C1181      H1187   1.086       .  S
C1181      C1182   1.364       .  D
C1182      C1466   1.496       .  S
C1183      H1188   1.086       .  S
C1183      C1184   1.364       .  D
C1184      C1245   1.494       .  S
C1189      C1190   1.545       .  S
C1189      C1195   1.542       .  S
C1189      C1193   1.539       .  S
C1189      C1482   1.504       .  S
C1190      H1197   1.086       .  S
C1190      C1191   1.366       .  D
C1191      C1248   1.493       .  S
C1191      C1192   1.543       .  S
C1192      C1196   1.543       .  S
C1192      C1194   1.544       .  S
C1192      H1198   1.112       .  S
C1193      H1199   1.086       .  S
C1193      C1194   1.358       .  D
C1194      C1465   1.488       .  S
C1195      H1200   1.086       .  S
C1195      C1196   1.362       .  D
C1196      C1417   1.486       .  S
C1201      C1202   1.544       .  S
C1201      C1207   1.543       .  S
C1201      C1205   1.544       .  S
C1201      C1485   1.509       .  S
C1202      H1209   1.086       .  S
C1202      C1203   1.362       .  D
C1203      C1384   1.494       .  S
C1203      C1204   1.544       .  S
C1204      C1208   1.541       .  S
C1204      C1206   1.542       .  S
C1204      H1210   1.112       .  S
C1205      H1211   1.086       .  S
C1205      C1206   1.364       .  D
C1206      C1305   1.491       .  S
C1207      H1212   1.086       .  S
C1207      C1208   1.363       .  D
C1208      C1246   1.489       .  S
C1213      C1214   1.546       .  S
C1213      C1219   1.541       .  S
C1213      C1217   1.551       .  S
C1213      C1493   1.522       .  S
C1214      H1221   1.086       .  S
C1214      C1215   1.366       .  D
C1215      C1247   1.496       .  S
C1215      C1216   1.545       .  S
C1216      C1220   1.544       .  S
C1216      C1218   1.541       .  S
C1216      H1222   1.112       .  S
C1217      H1223   1.086       .  S
C1217      C1218   1.369       .  D
C1218      C1420   1.502       .  S
C1219      H1224   1.086       .  S
C1219      C1220   1.361       .  D
C1220      C1385   1.490       .  S
N1225      C2738   1.352       .  A
N1225      C1229   1.352       .  A
N1225      H1257   1.034       .  S
N1226      C1234   1.351       .  A
N1227      C2740   1.350       .  A
N1227      C1231   1.351       .  A
N1227      H1258   1.039       .  S
N1228      C1236   1.349       .  A
C1229      C1237   1.381       .  A
C1229      C1245   1.413       .  A
C1230      N2733   1.349   1_455  A
C1230      C1246   1.405       .  A
C1230      C1238   1.380       .  A
C1231      C1239   1.382       .  A
C1231      C1248   1.406       .  A
C1232      N2735   1.352   1_455  A
C1232      C1247   1.405       .  A
C1232      C1240   1.380       .  A
C1233      C1245   1.406       .  A
C1233      C1241   1.378       .  A
C1234      C1248   1.405       .  A
C1234      C1242   1.377       .  A
C1235      C1243   1.380       .  A
C1235      C1246   1.407       .  A
C1236      C1244   1.379       .  A
C1236      C1247   1.403       .  A
C1237      C2746   1.381       .  A
C1237      H1249   1.081       .  S
C1238      C2745   1.379   1_455  A
C1238      H1250   1.082       .  S
C1239      C2748   1.381       .  A
C1239      H1251   1.082       .  S
C1240      C2747   1.381   1_455  A
C1240      H1252   1.082       .  S
C1241      H1253   1.080       .  S
C1242      H1254   1.080       .  S
C1243      H1255   1.081       .  S
C1244      H1256   1.081       .  S
C1259      C1260   1.543       .  S
C1259      C1265   1.543       .  S
C1259      C1263   1.546       .  S
C1259      C1490   1.510       .  S
C1260      H1267   1.086       .  S
C1260      C1261   1.363       .  D
C1261      C1349   1.489       .  S
C1261      C1262   1.540       .  S
C1262      C1266   1.543       .  S
C1262      C1264   1.543       .  S
C1262      H1268   1.112       .  S
C1263      H1269   1.086       .  S
C1263      C1264   1.366       .  D
C1264      C1463   1.492       .  S
C1265      H1270   1.086       .  S
C1265      C1266   1.360       .  D
C1266      C1303   1.492       .  S
C1271      C1272   1.540       .  S
C1271      C1277   1.543       .  S
C1271      C1275   1.540       .  S
C1271      C1498   1.500       .  S
C1272      H1279   1.086       .  S
C1272      C1273   1.360       .  D
C1273      C1352   1.488       .  S
C1273      C1274   1.542       .  S
C1274      C1278   1.543       .  S
C1274      C1276   1.541       .  S
C1274      H1280   1.112       .  S
C1275      H1281   1.086       .  S
C1275      C1276   1.359       .  D
C1276      C1304   1.481       .  S
C1277      H1282   1.086       .  S
C1277      C1278   1.364       .  D
C1278      C1383   1.490       .  S
N1283      C2796   1.347       .  A
N1283      C1287   1.350       .  A
N1283      H1315   1.041       .  S
N1284      C1291   1.349       .  A
N1285      C2798   1.348       .  A
N1285      C1289   1.345       .  A
N1285      H1316   1.038       .  S
N1286      C1293   1.347       .  A
C1287      C1295   1.382       .  A
C1287      C1303   1.402       .  A
C1288      N2791   1.348       .  A
C1288      C1304   1.400       .  A
C1288      C1296   1.381       .  A
C1289      C1297   1.381       .  A
C1289      C1306   1.396       .  A
C1290      N2793   1.352       .  A
C1290      C1305   1.411       .  A
C1290      C1298   1.382       .  A
C1291      C1303   1.399       .  A
C1291      C1299   1.375       .  A
C1292      C1306   1.396       .  A
C1292      C1300   1.378       .  A
C1293      C1301   1.378       .  A
C1293      C1304   1.400       .  A
C1294      C1302   1.379       .  A
C1294      C1305   1.406       .  A
C1295      C2804   1.380       .  A
C1295      H1307   1.082       .  S
C1296      C2803   1.379   1_455  A
C1296      H1308   1.082       .  S
C1297      C2806   1.378       .  A
C1297      H1309   1.082       .  S
C1298      C2805   1.381   1_455  A
C1298      H1310   1.082       .  S
C1299      H1311   1.080       .  S
C1300      H1312   1.081       .  S
C1301      H1313   1.081       .  S
C1302      H1314   1.080       .  S
C1317      C1318   1.537       .  S
C1317      C1323   1.543       .  S
C1317      C1321   1.543       .  S
C1317      C1505   1.499       .  S
C1318      H1325   1.086       .  S
C1318      C1319   1.358       .  D
C1319      C1419   1.480       .  S
C1319      C1320   1.542       .  S
C1320      C1324   1.540       .  S
C1320      C1322   1.546       .  S
C1320      H1326   1.112       .  S
C1321      H1327   1.086       .  S
C1321      C1322   1.363       .  D
C1322      C1351   1.495       .  S
C1323      H1328   1.086       .  S
C1323      C1324   1.362       .  D
C1324      C1386   1.486       .  S
N1329      C1333   1.350       .  A
N1329      H1361   1.036       .  S
N1330      C1337   1.351       .  A
N1330      C2846   1.351       .  A
N1331      C1335   1.349       .  A
N1331      H1362   1.041       .  S
N1332      C1339   1.350       .  A
N1332      C2848   1.349       .  A
C1333      C1341   1.382       .  A
C1333      C1349   1.407       .  A
C1334      C1350   1.411       .  A
C1334      C1342   1.381       .  A
C1335      C1343   1.381       .  A
C1335      C1352   1.400       .  A
C1336      C1351   1.404       .  A
C1336      C1344   1.382       .  A
C1337      C1349   1.408       .  A
C1337      C1345   1.378       .  A
C1338      N2838   1.349       .  A
C1338      C1352   1.402       .  A
C1338      C1346   1.377       .  A
C1339      C1347   1.378       .  A
C1339      C1350   1.405       .  A
C1340      N2840   1.349   1_455  A
C1340      C1348   1.377       .  A
C1340      C1351   1.404       .  A
C1341      H1353   1.082       .  S
C1342      H1354   1.082       .  S
C1343      H1355   1.082       .  S
C1344      H1356   1.082       .  S
C1345      C2854   1.372       .  A
C1345      H1357   1.080       .  S
C1346      C2853   1.372   1_455  A
C1346      H1358   1.080       .  S
C1347      C2856   1.375       .  A
C1347      H1359   1.081       .  S
C1348      C2855   1.375   1_455  A
C1348      H1360   1.081       .  S
C1350      C1438   1.498       .  S
N1363      C1367   1.350       .  A
N1363      H1395   1.040       .  S
N1364      C1372   1.349       .  A
N1365      C1369   1.350       .  A
N1365      H1396   1.037       .  S
N1366      C1374   1.349       .  A
C1367      C1375   1.381       .  A
C1367      C1383   1.402       .  A
C1368      C1384   1.404       .  A
C1368      C1376   1.382       .  A
C1369      C1377   1.381       .  A
C1369      C1386   1.405       .  A
C1370      C1385   1.406       .  A
C1370      C1378   1.382       .  A
C1371      C1383   1.402       .  A
C1371      C1379   1.377       .  A
C1372      C1386   1.404       .  A
C1372      C1380   1.378       .  A
C1373      C1381   1.377       .  A
C1373      C1384   1.402       .  A
C1374      C1382   1.378       .  A
C1374      C1385   1.406       .  A
C1375      H1387   1.082       .  S
C1376      H1388   1.082       .  S
C1377      H1389   1.082       .  S
C1378      H1390   1.082       .  S
C1379      H1391   1.081       .  S
C1380      H1392   1.080       .  S
C1381      H1393   1.081       .  S
C1382      H1394   1.081       .  S
N1397      C1402   1.355       .  A
N1397      H1429   1.040       .  S
N1398      C1405   1.349       .  A
N1398      C2914   1.353       .  A
N1399      C1404   1.347       .  A
N1399      H1430   1.035       .  S
N1400      C1407   1.353       .  A
N1400      C2916   1.352       .  A
C1401      C1409   1.383       .  A
C1401      C1417   1.401       .  A
C1402      C1418   1.411       .  A
C1402      C1410   1.382       .  A
C1403      C1411   1.381       .  A
C1403      C1420   1.412       .  A
C1404      C1419   1.406       .  A
C1404      C1412   1.381       .  A
C1405      C1417   1.405       .  A
C1405      C1413   1.377       .  A
C1406      N2906   1.354   1_455  A
C1406      C1420   1.413       .  A
C1406      C1414   1.378       .  A
C1407      C1415   1.377       .  A
C1407      C1418   1.408       .  A
C1408      N2908   1.345   1_455  A
C1408      C1416   1.380       .  A
C1408      C1419   1.401       .  A
C1409      H1421   1.082       .  S
C1410      H1422   1.082       .  S
C1411      H1423   1.081       .  S
C1412      H1424   1.082       .  S
C1413      C2922   1.374       .  A
C1413      H1425   1.081       .  S
C1414      C2921   1.375   1_455  A
C1414      H1426   1.080       .  S
C1415      C2924   1.377       .  A
C1415      H1427   1.081       .  S
C1416      C2923   1.376   1_455  A
C1416      H1428   1.082       .  S
C1418      C1433   1.507       .  S
C1431      C1432   1.553       .  S
C1431      C1437   1.547       .  S
C1431      C1435   1.542       .  S
C1431      C1502   1.522       .  S
C1432      H1439   1.085       .  S
C1432      C1433   1.370       .  D
C1433      C1434   1.548       .  S
C1434      C1438   1.544       .  S
C1434      C1436   1.540       .  S
C1434      H1440   1.111       .  S
C1435      H1441   1.086       .  S
C1435      C1436   1.362       .  D
C1436      C1464   1.489       .  S
C1437      H1442   1.086       .  S
C1437      C1438   1.366       .  D
N1443      C1447   1.350       .  A
N1443      H1475   1.034       .  S
N1444      C1451   1.348       .  A
N1445      C1449   1.350       .  A
N1445      H1476   1.039       .  S
N1446      C1453   1.350       .  A
C1447      C1455   1.380       .  A
C1447      C1463   1.409       .  A
C1448      C1464   1.409       .  A
C1448      C1456   1.381       .  A
C1449      C1457   1.380       .  A
C1449      C1466   1.403       .  A
C1450      C1465   1.400       .  A
C1450      C1458   1.383       .  A
C1451      C1463   1.406       .  A
C1451      C1459   1.380       .  A
C1452      C1466   1.407       .  A
C1452      C1460   1.378       .  A
C1453      C1461   1.379       .  A
C1453      C1464   1.407       .  A
C1454      C1462   1.376       .  A
C1454      C1465   1.402       .  A
C1455      H1467   1.082       .  S
C1456      H1468   1.081       .  S
C1457      H1469   1.082       .  S
C1458      H1470   1.082       .  S
C1459      H1471   1.082       .  S
C1460      H1472   1.081       .  S
C1461      H1473   1.080       .  S
C1462      H1474   1.079       .  S
C1477      H1479   1.087       .  S
C1477      C1478   1.335       .  D
C1478      H1480   1.088       .  S
C1481      H1483   1.086       .  S
C1481      C1482   1.339       .  D
C1482      H1484   1.087       .  S
C1485      H1487   1.087       .  S
C1485      C1486   1.341       .  D
C1486      H1488   1.086       .  S
C1489      H1491   1.086       .  S
C1489      C1490   1.341       .  D
C1490      H1492   1.087       .  S
C1493      H1495   1.087       .  S
C1493      C1494   1.351       .  D
C1494      H1496   1.086       .  S
C1497      H1499   1.086       .  S
C1497      C1498   1.341       .  D
C1498      H1500   1.087       .  S
C1501      H1503   1.086       .  S
C1501      C1502   1.343       .  D
C1502      H1504   1.087       .  S
C1505      H1507   1.088       .  S
C1505      C1506   1.338       .  D
C1506      H1508   1.086       .  S
N1509      N1510   1.315       .  A
N1509      N1515   1.315       .  A
N1509     Mn1538   2.176       .  S
N1510      C1517   1.344       .  A
N1511      N1513   1.315       .  A
N1511      N1512   1.320       .  A
N1511     Mn1527   2.195       .  S
N1512      C1518   1.350       .  A
N1513      N1514   1.319       .  A
N1513     Mn1538   2.193       .  S
N1514      C1518   1.353       .  A
N1515      N1516   1.324       .  A
N1515     Mn1527   2.213       .  S
N1516      C1517   1.358       .  A
C1517      C1874   1.466       .  S
C1518      C1863   1.467       .  S
N1519      N1525   1.318       .  A
N1519      N1520   1.327       .  A
N1519     Mn1549   2.237       .  S
N1520      C1528   1.361       .  A
N1521      N1522   1.322       .  A
N1521      N1523   1.318       .  A
N1521     Mn1527   2.200       .  S
N1522      C1529   1.353       .  A
N1523      N1524   1.321       .  A
N1523     Mn1549   2.221       .  S
N1524      C1529   1.353       .  A
N1525      N1526   1.317       .  A
N1525     Mn1527   2.191       .  S
N1526      C1528   1.346       .  A
Mn1527    Cl1551   2.548       .  S
C1528      C1871   1.478       .  S
C1529      C1883   1.477       .  S
N1530      N1531   1.318       .  A
N1530      N1536   1.314       .  A
N1530     Mn1538   2.179       .  S
N1531      C1539   1.348       .  A
N1532      N1534   1.315       .  A
N1532      N1533   1.323       .  A
N1532     Mn1550   2.211       .  S
N1533      C1540   1.357       .  A
N1534      N1535   1.316       .  A
N1534     Mn1538   2.179       .  S
N1535      C1540   1.346       .  A
N1536      N1537   1.321       .  A
N1536     Mn1550   2.203       .  S
N1537      C1539   1.354       .  A
Mn1538    Cl1551   2.540       .  S
C1539      C1854   1.465       .  S
C1540      C1866   1.466       .  S
N1541      N1542   1.324       .  A
N1541      N1547   1.318       .  A
N1541     Mn1549   2.226       .  S
N1542      C1552   1.357       .  A
N1543      N1544   1.317       .  A
N1543      N1545   1.318       .  A
N1543     Mn1550   2.184       .  S
N1544      C1553   1.346       .  A
N1545      N1546   1.326       .  A
N1545     Mn1549   2.232       .  S
N1546      C1553   1.359       .  A
N1547      N1548   1.320       .  A
N1547     Mn1550   2.198       .  S
N1548      C1552   1.350       .  A
Mn1549    Cl1551   2.550       .  S
Mn1550    Cl1551   2.542       .  S
C1552      C1878   1.478       .  S
C1553      C1858   1.473       .  S
C1554      C1555   1.538       .  S
C1554      C1560   1.545       .  S
C1554      C1558   1.546       .  S
C1554      C1855   1.505       .  S
C1555      H1562   1.086       .  S
C1555      C1556   1.361       .  D
C1556      C1683   1.483       .  S
C1556      C1557   1.541       .  S
C1557      C1561   1.540       .  S
C1557      C1559   1.545       .  S
C1557      H1563   1.112       .  S
C1558      H1564   1.086       .  S
C1558      C1559   1.362       .  D
C1559      C1843   1.494       .  S
C1560      H1565   1.086       .  S
C1560      C1561   1.364       .  D
C1561      C1622   1.491       .  S
C1566      C1567   1.544       .  S
C1566      C1572   1.550       .  S
C1566      C1570   1.539       .  S
C1566      C1859   1.513       .  S
C1567      H1574   1.086       .  S
C1567      C1568   1.363       .  D
C1568      C1625   1.492       .  S
C1568      C1569   1.543       .  S
C1569      C1573   1.541       .  S
C1569      C1571   1.544       .  S
C1569      H1575   1.112       .  S
C1570      H1576   1.086       .  S
C1570      C1571   1.360       .  D
C1571      C1842   1.488       .  S
C1572      H1577   1.085       .  S
C1572      C1573   1.368       .  D
C1573      C1794   1.495       .  S
C1578      C1579   1.542       .  S
C1578      C1584   1.541       .  S
C1578      C1582   1.543       .  S
C1578      C1862   1.504       .  S
C1579      H1586   1.086       .  S
C1579      C1580   1.362       .  D
C1580      C1761   1.490       .  S
C1580      C1581   1.545       .  S
C1581      C1585   1.544       .  S
C1581      C1583   1.540       .  S
C1581      H1587   1.112       .  S
C1582      H1588   1.086       .  S
C1582      C1583   1.363       .  D
C1583      C1682   1.486       .  S
C1584      H1589   1.086       .  S
C1584      C1585   1.360       .  D
C1585      C1623   1.491       .  S
C1590      C1591   1.543       .  S
C1590      C1596   1.542       .  S
C1590      C1594   1.551       .  S
C1590      C1870   1.518       .  S
C1591      H1598   1.086       .  S
C1591      C1592   1.361       .  D
C1592      C1624   1.492       .  S
C1592      C1593   1.544       .  S
C1593      C1597   1.542       .  S
C1593      C1595   1.542       .  S
C1593      H1599   1.112       .  S
C1594      H1600   1.085       .  S
C1594      C1595   1.370       .  D
C1595      C1797   1.499       .  S
C1596      H1601   1.086       .  S
C1596      C1597   1.362       .  D
C1597      C1762   1.491       .  S
N1602      C1606   1.351   1_455  A
N1602      H1634   1.036       .  S
N1603      C2364   1.352       .  A
N1603      C1611   1.349   1_565  A
N1604      C1608   1.351       .  A
N1604      H1635   1.039       .  S
N1605      C2366   1.347       .  A
N1605      C1613   1.348   1_565  A
C1606      C1614   1.381       .  A
C1606      C1622   1.408       .  A
C1607      C1623   1.408       .  A
C1607      C1615   1.380       .  A
C1608      C1616   1.382       .  A
C1608      C1625   1.408       .  A
C1609      C1624   1.403       .  A
C1609      C1617   1.381       .  A
C1610      N2357   1.351       .  A
C1610      C1622   1.407       .  A
C1610      C1618   1.378       .  A
C1611      C1625   1.407       .  A
C1611      C1619   1.379       .  A
C1612      N2359   1.347       .  A
C1612      C1620   1.378       .  A
C1612      C1623   1.403       .  A
C1613      C1621   1.377       .  A
C1613      C1624   1.400       .  A
C1614      H1626   1.082       .  S
C1615      H1627   1.081       .  S
C1616      H1628   1.082       .  S
C1617      H1629   1.082       .  S
C1618      C2373   1.373       .  A
C1618      H1630   1.080       .  S
C1619      C2372   1.374   1_545  A
C1619      H1631   1.080       .  S
C1620      C2375   1.373       .  A
C1620      H1632   1.080       .  S
C1621      C2374   1.374   1_545  A
C1621      H1633   1.081       .  S
C1636      C1637   1.544       .  S
C1636      C1642   1.536       .  S
C1636      C1640   1.548       .  S
C1636      C1867   1.506       .  S
C1637      H1644   1.086       .  S
C1637      C1638   1.363       .  D
C1638      C1726   1.495       .  S
C1638      C1639   1.543       .  S
C1639      C1643   1.546       .  S
C1639      C1641   1.541       .  S
C1639      H1645   1.111       .  S
C1640      H1646   1.086       .  S
C1640      C1641   1.365       .  D
C1641      C1840   1.491       .  S
C1642      H1647   1.086       .  S
C1642      C1643   1.358       .  D
C1643      C1680   1.485       .  S
C1648      C1649   1.547       .  S
C1648      C1654   1.547       .  S
C1648      C1652   1.535       .  S
C1648      C1875   1.508       .  S
C1649      H1656   1.086       .  S
C1649      C1650   1.365       .  D
C1650      C1729   1.492       .  S
C1650      C1651   1.541       .  S
C1651      C1655   1.541       .  S
C1651      C1653   1.543       .  S
C1651      H1657   1.112       .  S
C1652      H1658   1.086       .  S
C1652      C1653   1.358       .  D
C1653      C1681   1.484       .  S
C1654      H1659   1.086       .  S
C1654      C1655   1.364       .  D
C1655      C1760   1.492       .  S
N1660      C1664   1.347   1_455  A
N1660      H1692   1.040       .  S
N1661      C1668   1.347       .  A
N1661      C2046   1.351   1_554  A
N1662      C1666   1.350   1_455  A
N1662      H1693   1.037       .  S
N1663      C1670   1.348       .  A
N1663      C2048   1.346   1_554  A
C1664      C1672   1.382       .  A
C1664      C1680   1.400       .  A
C1665      C1681   1.398       .  A
C1665      C1673   1.382       .  A
C1666      C1674   1.381       .  A
C1666      C1683   1.405       .  A
C1667      C1682   1.407       .  A
C1667      C1675   1.382       .  A
C1668      C1680   1.404       .  A
C1668      C1676   1.379       .  A
C1669      N2038   1.346       .  A
C1669      C1683   1.400       .  A
C1669      C1677   1.377       .  A
C1670      C1678   1.375       .  A
C1670      C1681   1.398       .  A
C1671      N2040   1.350       .  A
C1671      C1679   1.379       .  A
C1671      C1682   1.409       .  A
C1672      H1684   1.082       .  S
C1673      H1685   1.082       .  S
C1674      H1686   1.081       .  S
C1675      H1687   1.082       .  S
C1676      C2054   1.378   1_554  A
C1676      H1688   1.081       .  S
C1677      C2053   1.371       .  A
C1677      H1689   1.080       .  S
C1678      C2056   1.369   1_554  A
C1678      H1690   1.080       .  S
C1679      C2055   1.375       .  A
C1679      H1691   1.081       .  S
C1694      C1695   1.546       .  S
C1694      C1700   1.544       .  S
C1694      C1698   1.546       .  S
C1694      C1882   1.515       .  S
C1695      H1702   1.086       .  S
C1695      C1696   1.364       .  D
C1696      C1796   1.497       .  S
C1696      C1697   1.544       .  S
C1697      C1701   1.542       .  S
C1697      C1699   1.544       .  S
C1697      H1703   1.112       .  S
C1698      H1704   1.086       .  S
C1698      C1699   1.365       .  D
C1699      C1728   1.494       .  S
C1700      H1705   1.086       .  S
C1700      C1701   1.363       .  D
C1701      C1763   1.491       .  S
N1706      C2465   1.352       .  A
N1706      C1710   1.352       .  A
N1706      H1738   1.036       .  S
N1707      C1714   1.350   1_455  A
N1708      C2467   1.351       .  A
N1708      C1712   1.351       .  A
N1708      H1739   1.038       .  S
N1709      C1716   1.350       .  A
C1710      C1718   1.382       .  A
C1710      C1726   1.411       .  A
C1711      N2460   1.353   1_545  A
C1711      C1727   1.410       .  A
C1711      C1719   1.381       .  A
C1712      C1720   1.383       .  A
C1712      C1729   1.407       .  A
C1713      N2462   1.351       .  A
C1713      C1728   1.405       .  A
C1713      C1721   1.382       .  A
C1714      C1726   1.408       .  A
C1714      C1722   1.379       .  A
C1715      C1729   1.406       .  A
C1715      C1723   1.378       .  A
C1716      C1724   1.378       .  A
C1716      C1727   1.406       .  A
C1717      C1725   1.377       .  A
C1717      C1728   1.402       .  A
C1718      C2473   1.381       .  A
C1718      H1730   1.081       .  S
C1719      C2472   1.381   1_545  A
C1719      H1731   1.082       .  S
C1720      C2475   1.383       .  A
C1720      H1732   1.082       .  S
C1721      C2474   1.382   1_545  A
C1721      H1733   1.082       .  S
C1722      H1734   1.080       .  S
C1723      H1735   1.081       .  S
C1724      H1736   1.081       .  S
C1725      H1737   1.081       .  S
C1727      C1815   1.496       .  S
N1740      C2122   1.351   1_554  A
N1740      C1744   1.348       .  A
N1740      H1772   1.040       .  S
N1741      C2502   1.352   1_545  A
N1741      C1749   1.353       .  A
N1742      C2124   1.348   1_554  A
N1742      C1746   1.349       .  A
N1742      H1773   1.038       .  S
N1743      C2504   1.347       .  A
N1743      C1751   1.348   1_565  A
C1744      C1752   1.383       .  A
C1744      C1760   1.403       .  A
C1745      N2117   1.351       .  A
C1745      C1761   1.404       .  A
C1745      C1753   1.381       .  A
C1746      C1754   1.383       .  A
C1746      C1763   1.404       .  A
C1747      N2119   1.351       .  A
C1747      C1762   1.406       .  A
C1747      C1755   1.380       .  A
C1748      N2495   1.351       .  A
C1748      C1760   1.408       .  A
C1748      C1756   1.377       .  A
C1749      C1763   1.409       .  A
C1749      C1757   1.377       .  A
C1750      N2497   1.347       .  A
C1750      C1758   1.378       .  A
C1750      C1761   1.400       .  A
C1751      C1759   1.379       .  A
C1751      C1762   1.405       .  A
C1752      C2130   1.381   1_554  A
C1752      H1764   1.082       .  S
C1753      C2129   1.381       .  A
C1753      H1765   1.082       .  S
C1754      C2132   1.379   1_554  A
C1754      H1766   1.082       .  S
C1755      C2131   1.378       .  A
C1755      H1767   1.082       .  S
C1756      C2511   1.375       .  A
C1756      H1768   1.080       .  S
C1757      C2510   1.373   1_545  A
C1757      H1769   1.080       .  S
C1758      C2513   1.375       .  A
C1758      H1770   1.081       .  S
C1759      C2512   1.375   1_545  A
C1759      H1771   1.081       .  S
N1774      C1779   1.353       .  A
N1774      C2155   1.351   1_554  A
N1774      H1806   1.039       .  S
N1775      C1782   1.351       .  A
N1776      C1781   1.353       .  A
N1776      C2157   1.349   1_554  A
N1776      H1807   1.036       .  S
N1777      C1784   1.350       .  A
C1778      N2151   1.353       .  A
C1778      C1786   1.380       .  A
C1778      C1794   1.402       .  A
C1779      C1795   1.409       .  A
C1779      C1787   1.382       .  A
C1780      N2153   1.352       .  A
C1780      C1788   1.382       .  A
C1780      C1797   1.414       .  A
C1781      C1796   1.407       .  A
C1781      C1789   1.380       .  A
C1782      C1794   1.404       .  A
C1782      C1790   1.376       .  A
C1783      C1797   1.414       .  A
C1783      C1791   1.379       .  A
C1784      C1792   1.377       .  A
C1784      C1795   1.404       .  A
C1785      C1793   1.378       .  A
C1785      C1796   1.408       .  A
C1786      C2164   1.379       .  A
C1786      H1798   1.082       .  S
C1787      C2163   1.383   1_554  A
C1787      H1799   1.082       .  S
C1788      C2166   1.383       .  A
C1788      H1800   1.082       .  S
C1789      C2165   1.377   1_554  A
C1789      H1801   1.081       .  S
C1790      H1802   1.081       .  S
C1791      H1803   1.081       .  S
C1792      H1804   1.081       .  S
C1793      H1805   1.081       .  S
C1795      C1810   1.501       .  S
C1808      C1809   1.550       .  S
C1808      C1814   1.546       .  S
C1808      C1812   1.542       .  S
C1808      C1879   1.517       .  S
C1809      H1816   1.086       .  S
C1809      C1810   1.367       .  D
C1810      C1811   1.547       .  S
C1811      C1815   1.542       .  S
C1811      C1813   1.539       .  S
C1811      H1817   1.112       .  S
C1812      H1818   1.086       .  S
C1812      C1813   1.362       .  D
C1813      C1841   1.489       .  S
C1814      H1819   1.086       .  S
C1814      C1815   1.365       .  D
N1820      C2579   1.350       .  A
N1820      C1824   1.351       .  A
N1820      H1852   1.036       .  S
N1821      C1828   1.348       .  A
N1821      C2206   1.347   1_554  A
N1822      C2581   1.353       .  A
N1822      C1826   1.352       .  A
N1822      H1853   1.040       .  S
N1823      C1830   1.350       .  A
N1823      C2208   1.352   1_554  A
C1824      C1832   1.380       .  A
C1824      C1840   1.407       .  A
C1825      N2574   1.350   1_545  A
C1825      C1841   1.410       .  A
C1825      C1833   1.383       .  A
C1826      C1834   1.380       .  A
C1826      C1843   1.405       .  A
C1827      N2576   1.349   1_545  A
C1827      C1842   1.402       .  A
C1827      C1835   1.382       .  A
C1828      C1840   1.405       .  A
C1828      C1836   1.378       .  A
C1829      N2198   1.348       .  A
C1829      C1843   1.405       .  A
C1829      C1837   1.380       .  A
C1830      C1838   1.379       .  A
C1830      C1841   1.409       .  A
C1831      N2200   1.349       .  A
C1831      C1839   1.378       .  A
C1831      C1842   1.406       .  A
C1832      C2587   1.379       .  A
C1832      H1844   1.082       .  S
C1833      C2586   1.381   1_545  A
C1833      H1845   1.082       .  S
C1834      C2589   1.380       .  A
C1834      H1846   1.082       .  S
C1835      C2588   1.379   1_545  A
C1835      H1847   1.082       .  S
C1836      C2214   1.376   1_554  A
C1836      H1848   1.081       .  S
C1837      C2213   1.378       .  A
C1837      H1849   1.081       .  S
C1838      C2216   1.373   1_554  A
C1838      H1850   1.080       .  S
C1839      C2215   1.375       .  A
C1839      H1851   1.081       .  S
C1854      H1856   1.087       .  S
C1854      C1855   1.338       .  D
C1855      H1857   1.087       .  S
C1858      H1860   1.087       .  S
C1858      C1859   1.338       .  D
C1859      H1861   1.087       .  S
C1862      H1864   1.087       .  S
C1862      C1863   1.341       .  D
C1863      H1865   1.087       .  S
C1866      H1868   1.087       .  S
C1866      C1867   1.336       .  D
C1867      H1869   1.087       .  S
C1870      H1872   1.087       .  S
C1870      C1871   1.340       .  D
C1871      H1873   1.087       .  S
C1874      H1876   1.087       .  S
C1874      C1875   1.335       .  D
C1875      H1877   1.087       .  S
C1878      H1880   1.086       .  S
C1878      C1879   1.342       .  D
C1879      H1881   1.087       .  S
C1882      H1884   1.087       .  S
C1882      C1883   1.345       .  D
C1883      H1885   1.086       .  S
N1886      N1887   1.324       .  A
N1886      N1892   1.317       .  A
N1886     Mn1915   2.227       .  S
N1887      C1894   1.358       .  A
N1888      N1890   1.316       .  A
N1888      N1889   1.320       .  A
N1888     Mn1904   2.204       .  S
N1889      C1895   1.354       .  A
N1890      N1891   1.318       .  A
N1890     Mn1915   2.184       .  S
N1891      C1895   1.347       .  A
N1892      N1893   1.320       .  A
N1892     Mn1904   2.199       .  S
N1893      C1894   1.351       .  A
C1894      C2251   1.480       .  S
C1895      C2240   1.468       .  S
N1896      N1902   1.315       .  A
N1896      N1897   1.317       .  A
N1896     Mn1926   2.178       .  S
N1897      C1905   1.346       .  A
N1898      N1899   1.321       .  A
N1898      N1900   1.317       .  A
N1898     Mn1904   2.205       .  S
N1899      C1906   1.351       .  A
N1900      N1901   1.325       .  A
N1900     Mn1926   2.229       .  S
N1901      C1906   1.358       .  A
N1902      N1903   1.320       .  A
N1902     Mn1904   2.196       .  S
N1903      C1905   1.354       .  A
Mn1904    Cl1928   2.556       .  S
C1905      C2248   1.462       .  S
C1906      C2260   1.482       .  S
N1907      N1908   1.325       .  A
N1907      N1913   1.317       .  A
N1907     Mn1915   2.233       .  S
N1908      C1916   1.359       .  A
N1909      N1911   1.318       .  A
N1909      N1910   1.327       .  A
N1909     Mn1927   2.240       .  S
N1910      C1917   1.361       .  A
N1911      N1912   1.317       .  A
N1911     Mn1915   2.182       .  S
N1912      C1917   1.344       .  A
N1913      N1914   1.321       .  A
N1913     Mn1927   2.200       .  S
N1914      C1916   1.349       .  A
Mn1915    Cl1928   2.538       .  S
C1916      C2231   1.482       .  S
C1917      C2243   1.477       .  S
N1918      N1919   1.318       .  A
N1918      N1924   1.318       .  A
N1918     Mn1926   2.181       .  S
N1919      C1929   1.345       .  A
N1920      N1921   1.321       .  A
N1920      N1922   1.317       .  A
N1920     Mn1927   2.213       .  S
N1921      C1930   1.352       .  A
N1922      N1923   1.325       .  A
N1922     Mn1926   2.222       .  S
N1923      C1930   1.357       .  A
N1924      N1925   1.324       .  A
N1924     Mn1927   2.227       .  S
N1925      C1929   1.358       .  A
Mn1926    Cl1928   2.539       .  S
Mn1927    Cl1928   2.559       .  S
C1929      C2255   1.475       .  S
C1930      C2235   1.483       .  S
C1931      C1932   1.554       .  S
C1931      C1937   1.543       .  S
C1931      C1935   1.541       .  S
C1931      C2232   1.518       .  S
C1932      H1939   1.085       .  S
C1932      C1933   1.374       .  D
C1933      C2060   1.500       .  S
C1933      C1934   1.541       .  S
C1934      C1938   1.540       .  S
C1934      C1936   1.543       .  S
C1934      H1940   1.112       .  S
C1935      H1941   1.086       .  S
C1935      C1936   1.358       .  D
C1936      C2220   1.489       .  S
C1937      H1942   1.086       .  S
C1937      C1938   1.362       .  D
C1938      C1999   1.492       .  S
C1943      C1944   1.541       .  S
C1943      C1949   1.550       .  S
C1943      C1947   1.548       .  S
C1943      C2236   1.521       .  S
C1944      H1951   1.086       .  S
C1944      C1945   1.360       .  D
C1945      C2002   1.492       .  S
C1945      C1946   1.543       .  S
C1946      C1950   1.542       .  S
C1946      C1948   1.543       .  S
C1946      H1952   1.112       .  S
C1947      H1953   1.086       .  S
C1947      C1948   1.366       .  D
C1948      C2219   1.498       .  S
C1949      H1954   1.085       .  S
C1949      C1950   1.370       .  D
C1950      C2171   1.496       .  S
C1955      C1956   1.546       .  S
C1955      C1961   1.546       .  S
C1955      C1959   1.535       .  S
C1955      C2239   1.503       .  S
C1956      H1963   1.086       .  S
C1956      C1957   1.364       .  D
C1957      C2138   1.494       .  S
C1957      C1958   1.546       .  S
C1958      C1962   1.541       .  S
C1958      C1960   1.540       .  S
C1958      H1964   1.112       .  S
C1959      H1965   1.086       .  S
C1959      C1960   1.357       .  D
C1960      C2059   1.479       .  S
C1961      H1966   1.086       .  S
C1961      C1962   1.365       .  D
C1962      C2000   1.493       .  S
C1967      C1968   1.545       .  S
C1967      C1973   1.541       .  S
C1967      C1971   1.537       .  S
C1967      C2247   1.501       .  S
C1968      H1975   1.086       .  S
C1968      C1969   1.363       .  D
C1969      C2001   1.492       .  S
C1969      C1970   1.544       .  S
C1970      C1974   1.545       .  S
C1970      C1972   1.542       .  S
C1970      H1976   1.111       .  S
C1971      H1977   1.086       .  S
C1971      C1972   1.360       .  D
C1972      C2174   1.486       .  S
C1973      H1978   1.086       .  S
C1973      C1974   1.360       .  D
C1974      C2139   1.488       .  S
N1979      C1983   1.352       .  A
N1979      H2011   1.036       .  S
N1980      C2741   1.351       .  A
N1980      C1988   1.349   1_565  A
N1981      C1985   1.352       .  A
N1981      H2012   1.039       .  S
N1982      C2743   1.348   1_545  A
N1982      C1990   1.347       .  A
C1983      C1991   1.382       .  A
C1983      C1999   1.410       .  A
C1984      C2000   1.409       .  A
C1984      C1992   1.380       .  A
C1985      C1993   1.382       .  A
C1985      C2002   1.408       .  A
C1986      C2001   1.404       .  A
C1986      C1994   1.381       .  A
C1987      N2734   1.350       .  A
C1987      C1999   1.407       .  A
C1987      C1995   1.378       .  A
C1988      C2002   1.405       .  A
C1988      C1996   1.378       .  A
C1989      N2736   1.349       .  A
C1989      C1997   1.380       .  A
C1989      C2000   1.407       .  A
C1990      C1998   1.378       .  A
C1990      C2001   1.402       .  A
C1991      H2003   1.082       .  S
C1992      H2004   1.082       .  S
C1993      H2005   1.082       .  S
C1994      H2006   1.082       .  S
C1995      C2750   1.371       .  A
C1995      H2007   1.080       .  S
C1996      C2749   1.372   1_545  A
C1996      H2008   1.080       .  S
C1997      C2752   1.378       .  A
C1997      H2009   1.081       .  S
C1998      C2751   1.377   1_545  A
C1998      H2010   1.081       .  S
C2013      C2014   1.547       .  S
C2013      C2019   1.536       .  S
C2013      C2017   1.552       .  S
C2013      C2244   1.515       .  S
C2014      H2021   1.086       .  S
C2014      C2015   1.366       .  D
C2015      C2103   1.491       .  S
C2015      C2016   1.539       .  S
C2016      C2020   1.545       .  S
C2016      C2018   1.545       .  S
C2016      H2022   1.112       .  S
C2017      H2023   1.085       .  S
C2017      C2018   1.370       .  D
C2018      C2217   1.504       .  S
C2019      H2024   1.086       .  S
C2019      C2020   1.357       .  D
C2020      C2057   1.487       .  S
C2025      C2026   1.544       .  S
C2025      C2031   1.544       .  S
C2025      C2029   1.550       .  S
C2025      C2252   1.518       .  S
C2026      H2033   1.086       .  S
C2026      C2027   1.363       .  D
C2027      C2106   1.496       .  S
C2027      C2028   1.544       .  S
C2028      C2032   1.542       .  S
C2028      C2030   1.543       .  S
C2028      H2034   1.112       .  S
C2029      H2035   1.085       .  S
C2029      C2030   1.369       .  D
C2030      C2058   1.499       .  S
C2031      H2036   1.086       .  S
C2031      C2032   1.362       .  D
C2032      C2137   1.490       .  S
N2037      C2041   1.351   1_455  A
N2037      H2069   1.041       .  S
N2038      C2045   1.346       .  A
N2039      C2043   1.354       .  A
N2039      H2070   1.037       .  S
N2040      C2047   1.353       .  A
C2041      C2049   1.382       .  A
C2041      C2057   1.402       .  A
C2042      C2058   1.404       .  A
C2042      C2050   1.380       .  A
C2043      C2051   1.379       .  A
C2043      C2060   1.407       .  A
C2044      C2059   1.407       .  A
C2044      C2052   1.383       .  A
C2045      C2057   1.396       .  A
C2045      C2053   1.376       .  A
C2046      C2060   1.406       .  A
C2046      C2054   1.378       .  A
C2047      C2055   1.376       .  A
C2047      C2058   1.407       .  A
C2048      C2056   1.379       .  A
C2048      C2059   1.402       .  A
C2049      H2061   1.082       .  S
C2050      H2062   1.082       .  S
C2051      H2063   1.082       .  S
C2052      H2064   1.082       .  S
C2053      H2065   1.080       .  S
C2054      H2066   1.081       .  S
C2055      H2067   1.081       .  S
C2056      H2068   1.080       .  S
C2071      C2072   1.552       .  S
C2071      C2077   1.542       .  S
C2071      C2075   1.543       .  S
C2071      C2259   1.518       .  S
C2072      H2079   1.085       .  S
C2072      C2073   1.372       .  D
C2073      C2173   1.502       .  S
C2073      C2074   1.543       .  S
C2074      C2078   1.539       .  S
C2074      C2076   1.546       .  S
C2074      H2080   1.112       .  S
C2075      H2081   1.086       .  S
C2075      C2076   1.362       .  D
C2076      C2105   1.494       .  S
C2077      H2082   1.086       .  S
C2077      C2078   1.362       .  D
C2078      C2140   1.489       .  S
N2083      C2842   1.352       .  A
N2083      C2087   1.350       .  A
N2083      H2115   1.036       .  S
N2084      C2091   1.351       .  A
N2085      C2844   1.352       .  A
N2085      C2089   1.352       .  A
N2085      H2116   1.040       .  S
N2086      C2093   1.349   1_455  A
C2087      C2095   1.381       .  A
C2087      C2103   1.407       .  A
C2088      N2837   1.351   1_545  A
C2088      C2104   1.408       .  A
C2088      C2096   1.381       .  A
C2089      C2097   1.382       .  A
C2089      C2106   1.407       .  A
C2090      N2839   1.350   1_545  A
C2090      C2105   1.403       .  A
C2090      C2098   1.381       .  A
C2091      C2103   1.410       .  A
C2091      C2099   1.379       .  A
C2092      C2106   1.408       .  A
C2092      C2100   1.377       .  A
C2093      C2101   1.379       .  A
C2093      C2104   1.406       .  A
C2094      C2102   1.378       .  A
C2094      C2105   1.404       .  A
C2095      C2850   1.381       .  A
C2095      H2107   1.082       .  S
C2096      C2849   1.382   1_545  A
C2096      H2108   1.082       .  S
C2097      C2852   1.381       .  A
C2097      H2109   1.082       .  S
C2098      C2851   1.380   1_545  A
C2098      H2110   1.082       .  S
C2099      H2111   1.080       .  S
C2100      H2112   1.080       .  S
C2101      H2113   1.081       .  S
C2102      H2114   1.081       .  S
C2104      C2192   1.493       .  S
N2117      C2121   1.350       .  A
N2117      H2149   1.039       .  S
N2118      C2879   1.350       .  A
N2118      C2126   1.350   1_565  A
N2119      C2123   1.350       .  A
N2119      H2150   1.036       .  S
N2120      C2881   1.350   1_545  A
N2120      C2128   1.349       .  A
C2121      C2129   1.381       .  A
C2121      C2137   1.405       .  A
C2122      C2138   1.403       .  A
C2122      C2130   1.382       .  A
C2123      C2131   1.381       .  A
C2123      C2140   1.407       .  A
C2124      C2139   1.402       .  A
C2124      C2132   1.382       .  A
C2125      N2872   1.349       .  A
C2125      C2137   1.404       .  A
C2125      C2133   1.378       .  A
C2126      C2140   1.407       .  A
C2126      C2134   1.378       .  A
C2127      N2874   1.349       .  A
C2127      C2135   1.376       .  A
C2127      C2138   1.400       .  A
C2128      C2136   1.377       .  A
C2128      C2139   1.404       .  A
C2129      H2141   1.082       .  S
C2130      H2142   1.082       .  S
C2131      H2143   1.081       .  S
C2132      H2144   1.082       .  S
C2133      C2888   1.372       .  A
C2133      H2145   1.081       .  S
C2134      C2887   1.373   1_545  A
C2134      H2146   1.080       .  S
C2135      C2890   1.373       .  A
C2135      H2147   1.081       .  S
C2136      C2889   1.375   1_545  A
C2136      H2148   1.081       .  S
N2151      C2156   1.347       .  A
N2151      H2183   1.040       .  S
N2152      C2159   1.351       .  A
N2153      C2158   1.355       .  A
N2153      H2184   1.035       .  S
N2154      C2161   1.344       .  A
C2155      C2163   1.383       .  A
C2155      C2171   1.409       .  A
C2156      C2172   1.402       .  A
C2156      C2164   1.382       .  A
C2157      C2165   1.382       .  A
C2157      C2174   1.407       .  A
C2158      C2173   1.414       .  A
C2158      C2166   1.381       .  A
C2159      C2171   1.410       .  A
C2159      C2167   1.378       .  A
C2160      C2174   1.410       .  A
C2160      C2168   1.379       .  A
C2161      C2169   1.380       .  A
C2161      C2172   1.401       .  A
C2162      C2170   1.377       .  A
C2162      C2173   1.407       .  A
C2163      H2175   1.082       .  S
C2164      H2176   1.082       .  S
C2165      H2177   1.081       .  S
C2166      H2178   1.082       .  S
C2167      H2179   1.081       .  S
C2168      H2180   1.080       .  S
C2169      H2181   1.081       .  S
C2170      H2182   1.081       .  S
C2172      C2187   1.481       .  S
C2185      C2186   1.532       .  S
C2185      C2191   1.547       .  S
C2185      C2189   1.551       .  S
C2185      C2256   1.510       .  S
C2186      H2193   1.087       .  S
C2186      C2187   1.352       .  D
C2187      C2188   1.545       .  S
C2188      C2192   1.543       .  S
C2188      C2190   1.541       .  S
C2188      H2194   1.112       .  S
C2189      H2195   1.085       .  S
C2189      C2190   1.370       .  D
C2190      C2218   1.499       .  S
C2191      H2196   1.086       .  S
C2191      C2192   1.367       .  D
N2197      C2956   1.353       .  A
N2197      C2201   1.356       .  A
N2197      H2229   1.033       .  S
N2198      C2205   1.350       .  A
N2199      C2958   1.349       .  A
N2199      C2203   1.349       .  A
N2199      H2230   1.040       .  S
N2200      C2207   1.351       .  A
C2201      C2209   1.380       .  A
C2201      C2217   1.416       .  A
C2202      N2951   1.354   1_545  A
C2202      C2218   1.414       .  A
C2202      C2210   1.381       .  A
C2203      C2211   1.382       .  A
C2203      C2220   1.401       .  A
C2204      N2953   1.351   1_545  A
C2204      C2219   1.404       .  A
C2204      C2212   1.382       .  A
C2205      C2217   1.409       .  A
C2205      C2213   1.380       .  A
C2206      C2220   1.400       .  A
C2206      C2214   1.377       .  A
C2207      C2215   1.379       .  A
C2207      C2218   1.411       .  A
C2208      C2216   1.375       .  A
C2208      C2219   1.406       .  A
C2209      C2964   1.383       .  A
C2209      H2221   1.082       .  S
C2210      C2963   1.382   1_545  A
C2210      H2222   1.081       .  S
C2211      C2966   1.379       .  A
C2211      H2223   1.082       .  S
C2212      C2965   1.380   1_545  A
C2212      H2224   1.082       .  S
C2213      H2225   1.082       .  S
C2214      H2226   1.081       .  S
C2215      H2227   1.080       .  S
C2216      H2228   1.080       .  S
C2231      H2233   1.086       .  S
C2231      C2232   1.341       .  D
C2232      H2234   1.087       .  S
C2235      H2237   1.087       .  S
C2235      C2236   1.346       .  D
C2236      H2238   1.087       .  S
C2239      H2241   1.087       .  S
C2239      C2240   1.336       .  D
C2240      H2242   1.087       .  S
C2243      H2245   1.087       .  S
C2243      C2244   1.336       .  D
C2244      H2246   1.087       .  S
C2247      H2249   1.087       .  S
C2247      C2248   1.337       .  D
C2248      H2250   1.087       .  S
C2251      H2253   1.086       .  S
C2251      C2252   1.343       .  D
C2252      H2254   1.087       .  S
C2255      H2257   1.086       .  S
C2255      C2256   1.334       .  D
C2256      H2258   1.088       .  S
C2259      H2261   1.087       .  S
C2259      C2260   1.343       .  D
C2260      H2262   1.086       .  S
N2263      N2264   1.315       .  A
N2263      N2269   1.316       .  A
N2263     Mn2292   2.172       .  S
N2264      C2271   1.342       .  A
N2265      N2267   1.315       .  A
N2265      N2266   1.319       .  A
N2265     Mn2281   2.193       .  S
N2266      C2272   1.348       .  A
N2267      N2268   1.322       .  A
N2267     Mn2292   2.207       .  S
N2268      C2272   1.356       .  A
N2269      N2270   1.322       .  A
N2269     Mn2281   2.213       .  S
N2270      C2271   1.358       .  A
C2271      C2628   1.465       .  S
C2272      C2617   1.470       .  S
N2273      N2279   1.316       .  A
N2273      N2274   1.327       .  A
N2273     Mn2303   2.236       .  S
N2274      C2282   1.361       .  A
N2275      N2276   1.324       .  A
N2275      N2277   1.317       .  A
N2275     Mn2281   2.222       .  S
N2276      C2283   1.358       .  A
N2277      N2278   1.316       .  A
N2277     Mn2303   2.176       .  S
N2278      C2283   1.343       .  A
N2279      N2280   1.318       .  A
N2279     Mn2281   2.188       .  S
N2280      C2282   1.347       .  A
Mn2281    Cl2305   2.561       .  S
C2282      C2625   1.481       .  S
C2283      C2637   1.470       .  S
N2284      N2285   1.317       .  A
N2284      N2290   1.315       .  A
N2284     Mn2292   2.175       .  S
N2285      C2293   1.346       .  A
N2286      N2288   1.317       .  A
N2286      N2287   1.328       .  A
N2286     Mn2304   2.241       .  S
N2287      C2294   1.361       .  A
N2288      N2289   1.317       .  A
N2288     Mn2292   2.191       .  S
N2289      C2294   1.347       .  A
N2290      N2291   1.320       .  A
N2290     Mn2304   2.203       .  S
N2291      C2293   1.354       .  A
Mn2292    Cl2305   2.527       .  S
C2293      C2608   1.463       .  S
C2294      C2620   1.481       .  S
N2295      N2296   1.325       .  A
N2295      N2301   1.317       .  A
N2295     Mn2303   2.234       .  S
N2296      C2306   1.358       .  A
N2297      N2298   1.324       .  A
N2297      N2299   1.316       .  A
N2297     Mn2304   2.228       .  S
N2298      C2307   1.359       .  A
N2299      N2300   1.317       .  A
N2299     Mn2303   2.174       .  S
N2300      C2307   1.345       .  A
N2301      N2302   1.320       .  A
N2301     Mn2304   2.198       .  S
N2302      C2306   1.350       .  A
Mn2303    Cl2305   2.528       .  S
Mn2304    Cl2305   2.560       .  S
C2306      C2632   1.481       .  S
C2307      C2612   1.473       .  S
C2308      C2309   1.534       .  S
C2308      C2314   1.547       .  S
C2308      C2312   1.543       .  S
C2308      C2609   1.501       .  S
C2309      H2316   1.086       .  S
C2309      C2310   1.356       .  D
C2310      C2437   1.479       .  S
C2310      C2311   1.544       .  S
C2311      C2315   1.541       .  S
C2311      C2313   1.547       .  S
C2311      H2317   1.111       .  S
C2312      H2318   1.086       .  S
C2312      C2313   1.360       .  D
C2313      C2597   1.491       .  S
C2314      H2319   1.086       .  S
C2314      C2315   1.366       .  D
C2315      C2376   1.496       .  S
C2320      C2321   1.543       .  S
C2320      C2326   1.533       .  S
C2320      C2324   1.558       .  S
C2320      C2613   1.513       .  S
C2321      H2328   1.086       .  S
C2321      C2322   1.362       .  D
C2322      C2379   1.493       .  S
C2322      C2323   1.543       .  S
C2323      C2327   1.541       .  S
C2323      C2325   1.542       .  S
C2323      H2329   1.112       .  S
C2324      H2330   1.083       .  S
C2324      C2325   1.371       .  D
C2325      C2596   1.500       .  S
C2326      H2331   1.087       .  S
C2326      C2327   1.356       .  D
C2327      C2548   1.480       .  S
C2332      C2333   1.539       .  S
C2332      C2338   1.540       .  S
C2332      C2336   1.549       .  S
C2332      C2616   1.506       .  S
C2333      H2340   1.086       .  S
C2333      C2334   1.358       .  D
C2334      C2515   1.487       .  S
C2334      C2335   1.545       .  S
C2335      C2339   1.542       .  S
C2335      C2337   1.541       .  S
C2335      H2341   1.112       .  S
C2336      H2342   1.085       .  S
C2336      C2337   1.370       .  D
C2337      C2436   1.494       .  S
C2338      H2343   1.086       .  S
C2338      C2339   1.359       .  D
C2339      C2377   1.489       .  S
C2344      C2345   1.540       .  S
C2344      C2350   1.539       .  S
C2344      C2348   1.558       .  S
C2344      C2624   1.520       .  S
C2345      H2352   1.086       .  S
C2345      C2346   1.357       .  D
C2346      C2378   1.488       .  S
C2346      C2347   1.545       .  S
C2347      C2351   1.543       .  S
C2347      C2349   1.542       .  S
C2347      H2353   1.112       .  S
C2348      H2354   1.085       .  S
C2348      C2349   1.377       .  D
C2349      C2551   1.510       .  S
C2350      H2355   1.086       .  S
C2350      C2351   1.359       .  D
C2351      C2516   1.487       .  S
N2356      C2360   1.352       .  A
N2356      H2388   1.035       .  S
N2357      C2365   1.350       .  A
N2358      C2362   1.351   1_455  A
N2358      H2389   1.040       .  S
N2359      C2367   1.346       .  A
C2360      C2368   1.381       .  A
C2360      C2376   1.411       .  A
C2361      C2377   1.407       .  A
C2361      C2369   1.381       .  A
C2362      C2370   1.382       .  A
C2362      C2379   1.405       .  A
C2363      C2378   1.403       .  A
C2363      C2371   1.382       .  A
C2364      C2376   1.409       .  A
C2364      C2372   1.378       .  A
C2365      C2379   1.404       .  A
C2365      C2373   1.377       .  A
C2366      C2374   1.379       .  A
C2366      C2377   1.404       .  A
C2367      C2375   1.377       .  A
C2367      C2378   1.400       .  A
C2368      H2380   1.081       .  S
C2369      H2381   1.082       .  S
C2370      H2382   1.082       .  S
C2371      H2383   1.082       .  S
C2372      H2384   1.080       .  S
C2373      H2385   1.081       .  S
C2374      H2386   1.081       .  S
C2375      H2387   1.081       .  S
C2390      C2391   1.543       .  S
C2390      C2396   1.543       .  S
C2390      C2394   1.553       .  S
C2390      C2621   1.522       .  S
C2391      H2398   1.086       .  S
C2391      C2392   1.364       .  D
C2392      C2480   1.493       .  S
C2392      C2393   1.541       .  S
C2393      C2397   1.547       .  S
C2393      C2395   1.540       .  S
C2393      H2399   1.112       .  S
C2394      H2400   1.085       .  S
C2394      C2395   1.371       .  D
C2395      C2594   1.499       .  S
C2396      H2401   1.086       .  S
C2396      C2397   1.362       .  D
C2397      C2434   1.495       .  S
C2402      C2403   1.548       .  S
C2402      C2408   1.550       .  S
C2402      C2406   1.526       .  S
C2402      C2629   1.501       .  S
C2403      H2410   1.086       .  S
C2403      C2404   1.367       .  D
C2404      C2483   1.495       .  S
C2404      C2405   1.542       .  S
C2405      C2409   1.542       .  S
C2405      C2407   1.539       .  S
C2405      H2411   1.112       .  S
C2406      H2412   1.087       .  S
C2406      C2407   1.349       .  D
C2407      C2435   1.467       .  S
C2408      H2413   1.085       .  S
C2408      C2409   1.368       .  D
C2409      C2514   1.498       .  S
N2414      C2418   1.350   1_455  A
N2414      H2446   1.040       .  S
N2415      C2422   1.350       .  A
N2415      C2800   1.350   1_554  A
N2416      C2420   1.347   1_455  A
N2416      H2447   1.037       .  S
N2417      C2424   1.344       .  A
N2417      C2802   1.346   1_554  A
C2418      C2426   1.381       .  A
C2418      C2434   1.402       .  A
C2419      C2435   1.392       .  A
C2419      C2427   1.383       .  A
C2420      C2428   1.382       .  A
C2420      C2437   1.402       .  A
C2421      C2436   1.407       .  A
C2421      C2429   1.381       .  A
C2422      C2434   1.406       .  A
C2422      C2430   1.378       .  A
C2423      N2792   1.345       .  A
C2423      C2437   1.399       .  A
C2423      C2431   1.378       .  A
C2424      C2432   1.377       .  A
C2424      C2435   1.394       .  A
C2425      N2794   1.352       .  A
C2425      C2433   1.377       .  A
C2425      C2436   1.408       .  A
C2426      H2438   1.082       .  S
C2427      H2439   1.082       .  S
C2428      H2440   1.082       .  S
C2429      H2441   1.082       .  S
C2430      C2808   1.378   1_554  A
C2430      H2442   1.081       .  S
C2431      C2807   1.373       .  A
C2431      H2443   1.081       .  S
C2432      C2810   1.369   1_554  A
C2432      H2444   1.080       .  S
C2433      C2809   1.374       .  A
C2433      H2445   1.080       .  S
C2448      C2449   1.532       .  S
C2448      C2454   1.550       .  S
C2448      C2452   1.548       .  S
C2448      C2636   1.509       .  S
C2449      H2456   1.086       .  S
C2449      C2450   1.355       .  D
C2450      C2550   1.481       .  S
C2450      C2451   1.542       .  S
C2451      C2455   1.541       .  S
C2451      C2453   1.546       .  S
C2451      H2457   1.112       .  S
C2452      H2458   1.086       .  S
C2452      C2453   1.367       .  D
C2453      C2482   1.497       .  S
C2454      H2459   1.086       .  S
C2454      C2455   1.368       .  D
C2455      C2517   1.496       .  S
N2460      C2464   1.353       .  A
N2460      H2492   1.037       .  S
N2461      C2468   1.350   1_455  A
N2462      C2466   1.350   1_545  A
N2462      H2493   1.040       .  S
N2463      C2470   1.349       .  A
C2464      C2472   1.381       .  A
C2464      C2480   1.411       .  A
C2465      C2481   1.410       .  A
C2465      C2473   1.380       .  A
C2466      C2474   1.383       .  A
C2466      C2483   1.406       .  A
C2467      C2482   1.406       .  A
C2467      C2475   1.382       .  A
C2468      C2480   1.406       .  A
C2468      C2476   1.379       .  A
C2469      C2483   1.408       .  A
C2469      C2477   1.378       .  A
C2470      C2478   1.379       .  A
C2470      C2481   1.406       .  A
C2471      C2479   1.378       .  A
C2471      C2482   1.406       .  A
C2472      H2484   1.082       .  S
C2473      H2485   1.082       .  S
C2474      H2486   1.082       .  S
C2475      H2487   1.082       .  S
C2476      H2488   1.080       .  S
C2477      H2489   1.081       .  S
C2478      H2490   1.081       .  S
C2479      H2491   1.082       .  S
C2481      C2569   1.497       .  S
N2494      C2876   1.352   1_554  A
N2494      C2498   1.352       .  A
N2494      H2526   1.041       .  S
N2495      C2503   1.353       .  A
N2496      C2878   1.350   1_554  A
N2496      C2500   1.352       .  A
N2496      H2527   1.037       .  S
N2497      C2505   1.347       .  A
C2498      C2506   1.383       .  A
C2498      C2514   1.408       .  A
C2499      N2871   1.349       .  A
C2499      C2515   1.402       .  A
C2499      C2507   1.382       .  A
C2500      C2508   1.381       .  A
C2500      C2517   1.407       .  A
C2501      N2873   1.349       .  A
C2501      C2516   1.404       .  A
C2501      C2509   1.380       .  A
C2502      C2514   1.407       .  A
C2502      C2510   1.377       .  A
C2503      C2517   1.410       .  A
C2503      C2511   1.377       .  A
C2504      C2512   1.378       .  A
C2504      C2515   1.401       .  A
C2505      C2513   1.379       .  A
C2505      C2516   1.403       .  A
C2506      C2884   1.382   1_554  A
C2506      H2518   1.082       .  S
C2507      C2883   1.381       .  A
C2507      H2519   1.082       .  S
C2508      C2886   1.379   1_554  A
C2508      H2520   1.082       .  S
C2509      C2885   1.379       .  A
C2509      H2521   1.082       .  S
C2510      H2522   1.080       .  S
C2511      H2523   1.080       .  S
C2512      H2524   1.081       .  S
C2513      H2525   1.081       .  S
N2528      C2533   1.353       .  A
N2528      C2909   1.352   1_554  A
N2528      H2560   1.039       .  S
N2529      C2536   1.346       .  A
N2530      C2535   1.348   1_556  A
N2530      C2911   1.352       .  A
N2530      H2561   1.038       .  S
N2531      C2538   1.351       .  A
C2532      N2905   1.347       .  A
C2532      C2540   1.383       .  A
C2532      C2548   1.400       .  A
C2533      C2549   1.410       .  A
C2533      C2541   1.382       .  A
C2534      N2907   1.356       .  A
C2534      C2542   1.381       .  A
C2534      C2551   1.417       .  A
C2535      C2550   1.405       .  A
C2535      C2543   1.382       .  A
C2536      C2548   1.401       .  A
C2536      C2544   1.378       .  A
C2537      C2551   1.416       .  A
C2537      C2545   1.378       .  A
C2538      C2546   1.377       .  A
C2538      C2549   1.405       .  A
C2539      C2547   1.378       .  A
C2539      C2550   1.402       .  A
C2540      C2918   1.379       .  A
C2540      H2552   1.082       .  S
C2541      C2917   1.383   1_554  A
C2541      H2553   1.082       .  S
C2542      C2920   1.383       .  A
C2542      H2554   1.082       .  S
C2543      C2919   1.378   1_554  A
C2543      H2555   1.081       .  S
C2544      H2556   1.080       .  S
C2545      H2557   1.080       .  S
C2546      H2558   1.081       .  S
C2547      H2559   1.080       .  S
C2549      C2564   1.502       .  S
C2562      C2563   1.551       .  S
C2562      C2568   1.546       .  S
C2562      C2566   1.541       .  S
C2562      C2633   1.519       .  S
C2563      H2570   1.085       .  S
C2563      C2564   1.369       .  D
C2564      C2565   1.546       .  S
C2565      C2569   1.545       .  S
C2565      C2567   1.540       .  S
C2565      H2571   1.112       .  S
C2566      H2572   1.086       .  S
C2566      C2567   1.361       .  D
C2567      C2595   1.489       .  S
C2568      H2573   1.086       .  S
C2568      C2569   1.365       .  D
N2574      C2578   1.354       .  A
N2574      H2606   1.036       .  S
N2575      C2582   1.350       .  A
N2575      C2960   1.347   1_554  A
N2576      C2580   1.350       .  A
N2576      H2607   1.040       .  S
N2577      C2584   1.350       .  A
N2577      C2962   1.349   1_554  A
C2578      C2586   1.380       .  A
C2578      C2594   1.411       .  A
C2579      C2595   1.408       .  A
C2579      C2587   1.381       .  A
C2580      C2588   1.381       .  A
C2580      C2597   1.401       .  A
C2581      C2596   1.407       .  A
C2581      C2589   1.381       .  A
C2582      C2594   1.405       .  A
C2582      C2590   1.377       .  A
C2583      N2952   1.347       .  A
C2583      C2597   1.400       .  A
C2583      C2591   1.378       .  A
C2584      C2592   1.379       .  A
C2584      C2595   1.407       .  A
C2585      N2954   1.353       .  A
C2585      C2593   1.377       .  A
C2585      C2596   1.410       .  A
C2586      H2598   1.082       .  S
C2587      H2599   1.081       .  S
C2588      H2600   1.082       .  S
C2589      H2601   1.082       .  S
C2590      C2968   1.374   1_554  A
C2590      H2602   1.081       .  S
C2591      C2967   1.376       .  A
C2591      H2603   1.081       .  S
C2592      C2970   1.374   1_554  A
C2592      H2604   1.080       .  S
C2593      C2969   1.375       .  A
C2593      H2605   1.080       .  S
C2608      H2610   1.087       .  S
C2608      C2609   1.336       .  D
C2609      H2611   1.087       .  S
C2612      H2614   1.082       .  S
C2612      C2613   1.338       .  D
C2613      H2615   1.088       .  S
C2616      H2618   1.087       .  S
C2616      C2617   1.338       .  D
C2617      H2619   1.087       .  S
C2620      H2622   1.087       .  S
C2620      C2621   1.341       .  D
C2621      H2623   1.087       .  S
C2624      H2626   1.087       .  S
C2624      C2625   1.341       .  D
C2625      H2627   1.087       .  S
C2628      H2630   1.087       .  S
C2628      C2629   1.329       .  D
C2629      H2631   1.088       .  S
C2632      H2634   1.086       .  S
C2632      C2633   1.342       .  D
C2633      H2635   1.087       .  S
C2636      H2638   1.087       .  S
C2636      C2637   1.334       .  D
C2637      H2639   1.087       .  S
N2640      N2641   1.319       .  A
N2640      N2646   1.314       .  A
N2640     Mn2669   2.188       .  S
N2641      C2648   1.349       .  A
N2642      N2644   1.315       .  A
N2642      N2643   1.320       .  A
N2642     Mn2658   2.214       .  S
N2643      C2649   1.355       .  A
N2644      N2645   1.320       .  A
N2644     Mn2669   2.180       .  S
N2645      C2649   1.349       .  A
N2646      N2647   1.322       .  A
N2646     Mn2658   2.207       .  S
N2647      C2648   1.355       .  A
C2648      C3005   1.470       .  S
C2649      C2994   1.471       .  S
N2650      N2656   1.318       .  A
N2650      N2651   1.324       .  A
N2650     Mn2680   2.227       .  S
N2651      C2659   1.357       .  A
N2652      N2653   1.322       .  A
N2652      N2654   1.318       .  A
N2652     Mn2658   2.205       .  S
N2653      C2660   1.351       .  A
N2654      N2655   1.323       .  A
N2654     Mn2680   2.228       .  S
N2655      C2660   1.356       .  A
N2656      N2657   1.318       .  A
N2656     Mn2658   2.185       .  S
N2657      C2659   1.346       .  A
Mn2658    Cl2682   2.544       .  S
C2659      C3002   1.473       .  S
C2660      C3014   1.479       .  S
N2661      N2662   1.321       .  A
N2661      N2667   1.315       .  A
N2661     Mn2669   2.203       .  S
N2662      C2670   1.355       .  A
N2663      N2665   1.316       .  A
N2663      N2664   1.323       .  A
N2663     Mn2681   2.214       .  S
N2664      C2671   1.358       .  A
N2665      N2666   1.314       .  A
N2665     Mn2669   2.169       .  S
N2666      C2671   1.343       .  A
N2667      N2668   1.321       .  A
N2667     Mn2681   2.202       .  S
N2668      C2670   1.351       .  A
Mn2669    Cl2682   2.544       .  S
C2670      C2985   1.476       .  S
C2671      C2997   1.463       .  S
N2672      N2673   1.322       .  A
N2672      N2678   1.318       .  A
N2672     Mn2680   2.210       .  S
N2673      C2683   1.351       .  A
N2674      N2675   1.317       .  A
N2674      N2676   1.318       .  A
N2674     Mn2681   2.191       .  S
N2675      C2684   1.346       .  A
N2676      N2677   1.328       .  A
N2676     Mn2680   2.243       .  S
N2677      C2684   1.362       .  A
N2678      N2679   1.323       .  A
N2678     Mn2681   2.217       .  S
N2679      C2683   1.356       .  A
Mn2680    Cl2682   2.550       .  S
Mn2681    Cl2682   2.549       .  S
C2683      C3009   1.481       .  S
C2684      C2989   1.480       .  S
C2685      C2686   1.549       .  S
C2685      C2691   1.543       .  S
C2685      C2689   1.540       .  S
C2685      C2986   1.511       .  S
C2686      H2693   1.085       .  S
C2686      C2687   1.370       .  D
C2687      C2814   1.497       .  S
C2687      C2688   1.544       .  S
C2688      C2692   1.541       .  S
C2688      C2690   1.544       .  S
C2688      H2694   1.112       .  S
C2689      H2695   1.086       .  S
C2689      C2690   1.357       .  D
C2690      C2974   1.488       .  S
C2691      H2696   1.086       .  S
C2691      C2692   1.364       .  D
C2692      C2753   1.492       .  S
C2697      C2698   1.545       .  S
C2697      C2703   1.552       .  S
C2697      C2701   1.542       .  S
C2697      C2990   1.520       .  S
C2698      H2705   1.086       .  S
C2698      C2699   1.363       .  D
C2699      C2756   1.494       .  S
C2699      C2700   1.542       .  S
C2700      C2704   1.541       .  S
C2700      C2702   1.542       .  S
C2700      H2706   1.112       .  S
C2701      H2707   1.086       .  S
C2701      C2702   1.362       .  D
C2702      C2973   1.490       .  S
C2703      H2708   1.085       .  S
C2703      C2704   1.370       .  D
C2704      C2925   1.498       .  S
C2709      C2710   1.548       .  S
C2709      C2715   1.547       .  S
C2709      C2713   1.535       .  S
C2709      C2993   1.508       .  S
C2710      H2717   1.085       .  S
C2710      C2711   1.366       .  D
C2711      C2892   1.498       .  S
C2711      C2712   1.547       .  S
C2712      C2716   1.541       .  S
C2712      C2714   1.538       .  S
C2712      H2718   1.112       .  S
C2713      H2719   1.086       .  S
C2713      C2714   1.355       .  D
C2714      C2813   1.477       .  S
C2715      H2720   1.086       .  S
C2715      C2716   1.366       .  D
C2716      C2754   1.494       .  S
C2721      C2722   1.545       .  S
C2721      C2727   1.537       .  S
C2721      C2725   1.549       .  S
C2721      C3001   1.513       .  S
C2722      H2729   1.086       .  S
C2722      C2723   1.364       .  D
C2723      C2755   1.493       .  S
C2723      C2724   1.545       .  S
C2724      C2728   1.542       .  S
C2724      C2726   1.540       .  S
C2724      H2730   1.112       .  S
C2725      H2731   1.085       .  S
C2725      C2726   1.367       .  D
C2726      C2928   1.495       .  S
C2727      H2732   1.086       .  S
C2727      C2728   1.359       .  D
C2728      C2893   1.485       .  S
N2733      C2737   1.351       .  A
N2733      H2765   1.035       .  S
N2734      C2742   1.350       .  A
N2735      C2739   1.352       .  A
N2735      H2766   1.040       .  S
N2736      C2744   1.349       .  A
C2737      C2745   1.381       .  A
C2737      C2753   1.407       .  A
C2738      C2754   1.412       .  A
C2738      C2746   1.380       .  A
C2739      C2747   1.382       .  A
C2739      C2756   1.407       .  A
C2740      C2755   1.402       .  A
C2740      C2748   1.380       .  A
C2741      C2753   1.407       .  A
C2741      C2749   1.377       .  A
C2742      C2756   1.404       .  A
C2742      C2750   1.377       .  A
C2743      C2751   1.379       .  A
C2743      C2754   1.406       .  A
C2744      C2752   1.379       .  A
C2744      C2755   1.404       .  A
C2745      H2757   1.081       .  S
C2746      H2758   1.082       .  S
C2747      H2759   1.082       .  S
C2748      H2760   1.082       .  S
C2749      H2761   1.080       .  S
C2750      H2762   1.080       .  S
C2751      H2763   1.081       .  S
C2752      H2764   1.082       .  S
C2767      C2768   1.546       .  S
C2767      C2773   1.536       .  S
C2767      C2771   1.545       .  S
C2767      C2998   1.504       .  S
C2768      H2775   1.086       .  S
C2768      C2769   1.365       .  D
C2769      C2857   1.490       .  S
C2769      C2770   1.539       .  S
C2770      C2774   1.548       .  S
C2770      C2772   1.543       .  S
C2770      H2776   1.111       .  S
C2771      H2777   1.086       .  S
C2771      C2772   1.362       .  D
C2772      C2971   1.492       .  S
C2773      H2778   1.086       .  S
C2773      C2774   1.359       .  D
C2774      C2811   1.487       .  S
C2779      C2780   1.543       .  S
C2779      C2785   1.546       .  S
C2779      C2783   1.540       .  S
C2779      C3006   1.508       .  S
C2780      H2787   1.086       .  S
C2780      C2781   1.363       .  D
C2781      C2860   1.495       .  S
C2781      C2782   1.543       .  S
C2782      C2786   1.542       .  S
C2782      C2784   1.544       .  S
C2782      H2788   1.112       .  S
C2783      H2789   1.086       .  S
C2783      C2784   1.361       .  D
C2784      C2812   1.488       .  S
C2785      H2790   1.086       .  S
C2785      C2786   1.365       .  D
C2786      C2891   1.490       .  S
N2791      C2795   1.350   1_455  A
N2791      H2823   1.040       .  S
N2792      C2799   1.346       .  A
N2793      C2797   1.352   1_455  A
N2793      H2824   1.036       .  S
N2794      C2801   1.350       .  A
C2795      C2803   1.381       .  A
C2795      C2811   1.401       .  A
C2796      C2812   1.400       .  A
C2796      C2804   1.382       .  A
C2797      C2805   1.381       .  A
C2797      C2814   1.410       .  A
C2798      C2813   1.399       .  A
C2798      C2806   1.382       .  A
C2799      C2811   1.397       .  A
C2799      C2807   1.377       .  A
C2800      C2814   1.408       .  A
C2800      C2808   1.379       .  A
C2801      C2809   1.377       .  A
C2801      C2812   1.405       .  A
C2802      C2810   1.377       .  A
C2802      C2813   1.396       .  A
C2803      H2815   1.082       .  S
C2804      H2816   1.082       .  S
C2805      H2817   1.082       .  S
C2806      H2818   1.082       .  S
C2807      H2819   1.081       .  S
C2808      H2820   1.081       .  S
C2809      H2821   1.080       .  S
C2810      H2822   1.080       .  S
C2825      C2826   1.552       .  S
C2825      C2831   1.539       .  S
C2825      C2829   1.543       .  S
C2825      C3013   1.514       .  S
C2826      H2833   1.085       .  S
C2826      C2827   1.372       .  D
C2827      C2927   1.504       .  S
C2827      C2828   1.545       .  S
C2828      C2832   1.539       .  S
C2828      C2830   1.546       .  S
C2828      H2834   1.112       .  S
C2829      H2835   1.086       .  S
C2829      C2830   1.362       .  D
C2830      C2859   1.494       .  S
C2831      H2836   1.086       .  S
C2831      C2832   1.359       .  D
C2832      C2894   1.484       .  S
N2837      C2841   1.351       .  A
N2837      H2869   1.037       .  S
N2838      C2845   1.350   1_455  A
N2839      C2843   1.352       .  A
N2839      H2870   1.041       .  S
N2840      C2847   1.350       .  A
C2841      C2849   1.382       .  A
C2841      C2857   1.408       .  A
C2842      C2858   1.409       .  A
C2842      C2850   1.381       .  A
C2843      C2851   1.382       .  A
C2843      C2860   1.405       .  A
C2844      C2859   1.407       .  A
C2844      C2852   1.382       .  A
C2845      C2857   1.406       .  A
C2845      C2853   1.378       .  A
C2846      C2860   1.405       .  A
C2846      C2854   1.377       .  A
C2847      C2855   1.377       .  A
C2847      C2858   1.406       .  A
C2848      C2856   1.378       .  A
C2848      C2859   1.402       .  A
C2849      H2861   1.082       .  S
C2850      H2862   1.082       .  S
C2851      H2863   1.082       .  S
C2852      H2864   1.082       .  S
C2853      H2865   1.081       .  S
C2854      H2866   1.080       .  S
C2855      H2867   1.081       .  S
C2856      H2868   1.081       .  S
C2858      C2946   1.495       .  S
N2871      C2875   1.350       .  A
N2871      H2903   1.040       .  S
N2872      C2880   1.349       .  A
N2873      C2877   1.349       .  A
N2873      H2904   1.036       .  S
N2874      C2882   1.347       .  A
C2875      C2883   1.382       .  A
C2875      C2891   1.402       .  A
C2876      C2892   1.406       .  A
C2876      C2884   1.382       .  A
C2877      C2885   1.381       .  A
C2877      C2894   1.404       .  A
C2878      C2893   1.406       .  A
C2878      C2886   1.382       .  A
C2879      C2891   1.404       .  A
C2879      C2887   1.377       .  A
C2880      C2894   1.405       .  A
C2880      C2888   1.378       .  A
C2881      C2889   1.377       .  A
C2881      C2892   1.403       .  A
C2882      C2890   1.378       .  A
C2882      C2893   1.402       .  A
C2883      H2895   1.082       .  S
C2884      H2896   1.082       .  S
C2885      H2897   1.082       .  S
C2886      H2898   1.082       .  S
C2887      H2899   1.081       .  S
C2888      H2900   1.080       .  S
C2889      H2901   1.081       .  S
C2890      H2902   1.080       .  S
N2905      C2910   1.350       .  A
N2905      H2937   1.041       .  S
N2906      C2913   1.352       .  A
N2907      C2912   1.355       .  A
N2907      H2938   1.036       .  S
N2908      C2915   1.348       .  A
C2909      C2917   1.382       .  A
C2909      C2925   1.410       .  A
C2910      C2926   1.399       .  A
C2910      C2918   1.380       .  A
C2911      C2919   1.380       .  A
C2911      C2928   1.405       .  A
C2912      C2927   1.416       .  A
C2912      C2920   1.381       .  A
C2913      C2925   1.411       .  A
C2913      C2921   1.378       .  A
C2914      C2928   1.408       .  A
C2914      C2922   1.376       .  A
C2915      C2923   1.378       .  A
C2915      C2926   1.400       .  A
C2916      C2924   1.379       .  A
C2916      C2927   1.411       .  A
C2917      H2929   1.082       .  S
C2918      H2930   1.082       .  S
C2919      H2931   1.082       .  S
C2920      H2932   1.082       .  S
C2921      H2933   1.081       .  S
C2922      H2934   1.080       .  S
C2923      H2935   1.081       .  S
C2924      H2936   1.081       .  S
C2926      C2941   1.493       .  S
C2939      C2940   1.542       .  S
C2939      C2945   1.546       .  S
C2939      C2943   1.550       .  S
C2939      C3010   1.517       .  S
C2940      H2947   1.086       .  S
C2940      C2941   1.358       .  D
C2941      C2942   1.546       .  S
C2942      C2946   1.542       .  S
C2942      C2944   1.542       .  S
C2942      H2948   1.112       .  S
C2943      H2949   1.085       .  S
C2943      C2944   1.372       .  D
C2944      C2972   1.499       .  S
C2945      H2950   1.086       .  S
C2945      C2946   1.365       .  D
N2951      C2955   1.352       .  A
N2951      H2983   1.034       .  S
N2952      C2959   1.346       .  A
N2953      C2957   1.348       .  A
N2953      H2984   1.041       .  S
N2954      C2961   1.353       .  A
C2955      C2963   1.380       .  A
C2955      C2971   1.412       .  A
C2956      C2972   1.418       .  A
C2956      C2964   1.382       .  A
C2957      C2965   1.382       .  A
C2957      C2974   1.401       .  A
C2958      C2973   1.402       .  A
C2958      C2966   1.382       .  A
C2959      C2971   1.405       .  A
C2959      C2967   1.381       .  A
C2960      C2974   1.401       .  A
C2960      C2968   1.377       .  A
C2961      C2969   1.380       .  A
C2961      C2972   1.414       .  A
C2962      C2970   1.377       .  A
C2962      C2973   1.404       .  A
C2963      H2975   1.082       .  S
C2964      H2976   1.081       .  S
C2965      H2977   1.082       .  S
C2966      H2978   1.082       .  S
C2967      H2979   1.081       .  S
C2968      H2980   1.081       .  S
C2969      H2981   1.081       .  S
C2970      H2982   1.080       .  S
C2985      H2987   1.086       .  S
C2985      C2986   1.340       .  D
C2986      H2988   1.087       .  S
C2989      H2991   1.087       .  S
C2989      C2990   1.341       .  D
C2990      H2992   1.087       .  S
C2993      H2995   1.088       .  S
C2993      C2994   1.337       .  D
C2994      H2996   1.086       .  S
C2997      H2999   1.087       .  S
C2997      C2998   1.334       .  D
C2998      H3000   1.087       .  S
C3001      H3003   1.087       .  S
C3001      C3002   1.338       .  D
C3002      H3004   1.086       .  S
C3005      H3007   1.087       .  S
C3005      C3006   1.340       .  D
C3006      H3008   1.087       .  S
C3009      H3011   1.086       .  S
C3009      C3010   1.342       .  D
C3010      H3012   1.087       .  S
C3013      H3015   1.087       .  S
C3013      C3014   1.341       .  D
C3014      H3016   1.086       .  S
