geometry optimzed in LAMMPS
_audit_creation_date              2020-12-01 
_audit_creation_method            'lammps2cif' 
_symmetry_space_group_name_H-M    'P1' 
_symmetry_Int_Tables_number       1 
_symmetry_cell_setting            triclinic 
loop_ 
_symmetry_equiv_pos_as_xyz 
  x,y,z 
_cell_length_a                    36.14191917 
_cell_length_b                    34.246795691165104 
_cell_length_c                    36.58565609216616 
_cell_angle_alpha                 92.41764624962418 
_cell_angle_beta                  90.80242700998173 
_cell_angle_gamma                 89.98840587956931 
loop_ 
_atom_site_label 
_atom_site_type_symbol 
_atom_site_fract_x 
_atom_site_fract_y 
_atom_site_fract_z 
_atom_site_charge 
C1          C  0.19862547  0.22034857  0.18754679     0.87000
C2          C  0.22355283  0.25116533  0.17062022    -0.53200
C3          C  0.24475568  0.27297043  0.19525223     0.10000
C4          C  0.23823435  0.26242173  0.23527080     0.20900
C5          C  0.22504310  0.19635151  0.21140268    -0.53900
C6          C  0.24578897  0.21833666  0.23610777     0.10100
C7          C  0.17562877  0.24479001  0.21558694    -0.53500
C8          C  0.19618682  0.26653426  0.24042157     0.10600
H9          H  0.22438686  0.25518824  0.14136510     0.15100
H10         H  0.25510102  0.27950316  0.25584602     0.00900
H11         H  0.22761883  0.16478806  0.20848203     0.15400
H12         H  0.14580685  0.24609731  0.21652437     0.15200
C13         C  0.10244992  0.46177279  0.43209580     0.30500
C14         C  0.10288470  0.52780297  0.47789296     0.30500
C15         C  0.11629986  0.49953571  0.41605706    -0.05700
C16         C  0.06361293  0.47544225  0.44599595    -0.06400
C17         C  0.12416234  0.45929121  0.46819847    -0.06300
C18         C  0.11660054  0.53276315  0.43877937    -0.05700
C19         C  0.06401732  0.50946539  0.46962009    -0.06400
C20         C  0.12477832  0.49260664  0.49108285    -0.06300
C21         C  0.12763184  0.56324563  0.41786954    -0.31700
N22         N  0.13459025  0.54896752  0.38338480     0.14800
C23         C  0.12662941  0.51023623  0.38188593    -0.31700
H24         H  0.12734214  0.49126243  0.35750132     0.16700
C25         C  0.02750148  0.52013678  0.47509049    -0.30700
N26         N  0.00527543  0.49377405  0.45698033     0.13500
C27         C  0.02661448  0.46672496  0.43894976    -0.30700
C28         C  0.13489192  0.48091828  0.52545812    -0.31000
N29         N  0.14145089  0.44186122  0.52380164     0.14000
H30         H  0.13497311  0.49911891  0.55037505     0.16700
C31         C  0.13383095  0.42826277  0.48918580    -0.31000
H32         H  0.13239771  0.39766354  0.48056533     0.16700
H33         H  0.01547856  0.44320494  0.42159001     0.16700
H34         H  0.13050819  0.59354467  0.42710986     0.16700
H35         H  0.01722665  0.54629241  0.48890731     0.16700
C36         C  0.18321725  0.81153673  0.69046700     0.87000
C37         C  0.20956621  0.78665454  0.71326488    -0.53200
C38         C  0.23221153  0.76243672  0.69319537     0.10000
C39         C  0.22641201  0.76511041  0.65158340     0.20900
C40         C  0.20960586  0.83311278  0.66499200    -0.53900
C41         C  0.23213354  0.80877618  0.64465657     0.10100
C42         C  0.16253438  0.78231007  0.66447033    -0.53500
C43         C  0.18471404  0.75711607  0.64495454     0.10600
H44         H  0.21108435  0.78935682  0.74292974     0.15100
H45         H  0.24479796  0.74559781  0.63501198     0.00900
H46         H  0.21157297  0.86446845  0.66307718     0.15400
H47         H  0.13254560  0.78057359  0.66292022     0.15200
C48         C  0.44599704  0.13942278  0.41785715     0.30500
C49         C  0.50509666  0.13825765  0.46619408     0.30500
C50         C  0.44162142  0.16354496  0.45403142    -0.05700
C51         C  0.45576181  0.09829219  0.43266840    -0.06400
C52         C  0.48354872  0.15300587  0.40380546    -0.06300
C53         C  0.47173551  0.16306841  0.47853639    -0.05700
C54         C  0.48593177  0.09842834  0.45761922    -0.06400
C55         C  0.51320238  0.15247939  0.42812181    -0.06300
C56         C  0.45771986  0.17078299  0.51296270    -0.31700
N57         N  0.42099191  0.17762979  0.51012358     0.14800
C58         C  0.41060009  0.17164225  0.47464646    -0.31700
H59         H  0.38218840  0.17015187  0.46490580     0.16700
C60         C  0.48891265  0.06148411  0.47085658    -0.30700
N61         N  0.46271125  0.03843536  0.45454458     0.13500
C62         C  0.44218901  0.06001238  0.43133104    -0.30700
C63         C  0.54389088  0.16504534  0.40995747    -0.31000
N64         N  0.53352375  0.17315528  0.37522266     0.14000
H65         H  0.57166855  0.16813497  0.42115658     0.16700
C66         C  0.49668783  0.16614190  0.37126496    -0.31000
H67         H  0.48077078  0.16987257  0.34637552     0.16700
H68         H  0.41950620  0.04806380  0.41505623     0.16700
H69         H  0.47255630  0.16793276  0.53862265     0.16700
H70         H  0.50853917  0.05143526  0.49092689     0.16700
C71         C  0.76540737  0.26583304  0.15175928     0.87000
C72         C  0.78978562  0.29002072  0.17885451    -0.53200
C73         C  0.77110900  0.31639603  0.20054217     0.12900
C74         C  0.72894507  0.31638642  0.19315874     0.20900
C75         C  0.73529559  0.24769472  0.17524269    -0.53900
C76         C  0.71669230  0.27379402  0.19749445     0.10100
C77         C  0.74366538  0.29662565  0.13017428    -0.53500
C78         C  0.72428281  0.32280241  0.15188752     0.10600
H79         H  0.81952131  0.28589863  0.18125283     0.15100
H80         H  0.71333724  0.33776708  0.21059746     0.00900
H81         H  0.72939049  0.21657727  0.17447720     0.15400
H82         H  0.74058295  0.29609084  0.10067620     0.15200
C83         C  0.22053860  0.22875618  0.77917778     0.87000
C84         C  0.19614182  0.25583950  0.75631453    -0.53200
C85         C  0.21554988  0.27986818  0.73473202     0.10000
C86         C  0.25762905  0.27494445  0.73810191     0.20900
C87         C  0.24472832  0.20707661  0.75006573    -0.53900
C88         C  0.26380394  0.23149645  0.72864377     0.10100
C89         C  0.24777541  0.25599129  0.80042924    -0.53500
C90         C  0.26728121  0.28005792  0.77907798     0.10600
H91         H  0.16610587  0.25521495  0.75653371     0.15100
H92         H  0.27329531  0.29460141  0.72053369     0.00900
H93         H  0.24553439  0.17587633  0.74440751     0.15400
H94         H  0.25166256  0.25579369  0.82991941     0.15200
C95         C  0.87010145  0.51043340  0.49346970     0.30500
C96         C  0.86827086  0.46643175  0.42844163     0.30500
C97         C  0.84725710  0.52728179  0.46209340    -0.05700
C98         C  0.90815686  0.50256048  0.47546363    -0.06400
C99         C  0.85550537  0.46825832  0.49508261    -0.06300
C100        C  0.84690364  0.50531385  0.42927033    -0.05700
C101        C  0.90734864  0.48082901  0.44173519    -0.06400
C102        C  0.85394801  0.44639255  0.46215214    -0.06300
C103        C  0.83771713  0.53033426  0.40202132    -0.31700
N104        N  0.83177968  0.56653712  0.41714666     0.14800
C105        C  0.83756910  0.56505937  0.45374198    -0.31700
H106        H  0.83809151  0.59045634  0.47234891     0.16700
C107        C  0.94369001  0.47834475  0.43033766    -0.30700
N108        N  0.96611852  0.49467607  0.45685914     0.13500
C109        C  0.94486659  0.50961458  0.48443727    -0.30700
C110        C  0.85034003  0.40761516  0.47054652    -0.31000
N111        N  0.84941244  0.40534085  0.50744461     0.14000
H112        H  0.85040734  0.38273565  0.45129275     0.16700
C113        C  0.85463632  0.44173287  0.52247247    -0.31000
H114        H  0.85851638  0.44822610  0.55148064     0.16700
H115        H  0.95539176  0.52349076  0.50957513     0.16700
H116        H  0.83791666  0.52317407  0.37293205     0.16700
H117        H  0.95349766  0.46669712  0.40443137     0.16700
C118        C  0.76476265  0.84590720  0.22172224     0.87000
C119        C  0.73611810  0.82076761  0.19984968    -0.53200
C120        C  0.71411702  0.79860630  0.22068569     0.10000
C121        C  0.72265632  0.80304582  0.26169868     0.20900
C122        C  0.74206646  0.86949214  0.25059771    -0.53900
C123        C  0.71997677  0.84710111  0.27170136     0.10100
C124        C  0.78609340  0.81584665  0.24471335    -0.53500
C125        C  0.76387022  0.79350177  0.26530198     0.10600
H126        H  0.73413065  0.81978401  0.17016400     0.15100
H127        H  0.70475161  0.78414629  0.27782565     0.00900
H128        H  0.74366862  0.90107570  0.25411421     0.15400
H129        H  0.81564023  0.81135801  0.24519544     0.15200
C130        C  0.73582046  0.16502317  0.72145012     0.87000
C131        C  0.70439493  0.19246692  0.73496207    -0.53200
C132        C  0.69055707  0.21634157  0.70919090     0.10000
C133        C  0.70749035  0.20880653  0.67133713     0.20900
C134        C  0.71693530  0.14163260  0.68925863    -0.53900
C135        C  0.70234141  0.16478246  0.66297003     0.10100
C136        C  0.76384926  0.19206536  0.70349508    -0.53500
C137        C  0.74900260  0.21493505  0.67749616     0.10600
H138        H  0.69202699  0.19211271  0.76160901     0.15100
H139        H  0.69597161  0.22710892  0.64960128     0.00900
H140        H  0.71419483  0.11003961  0.68799732     0.15400
H141        H  0.79304798  0.19307534  0.71092921     0.15200
C142        C  0.44736116  0.89430713  0.48682725     0.30500
C143        C  0.50916544  0.89985676  0.44353547     0.30500
C144        C  0.44693689  0.87021415  0.45028460    -0.05700
C145        C  0.45592317  0.93606066  0.47315988    -0.06400
C146        C  0.48474733  0.88298722  0.50439164    -0.06300
C147        C  0.47839357  0.87188015  0.42876506    -0.05700
C148        C  0.48769755  0.93793731  0.45148599    -0.06400
C149        C  0.51573549  0.88458596  0.48225951    -0.06300
C150        C  0.46894876  0.85458527  0.39505746    -0.31700
N151        N  0.43244463  0.84495291  0.39475111     0.14800
C152        C  0.41882435  0.85500033  0.42823975    -0.31700
H153        H  0.38981801  0.85491556  0.43515626     0.16700
C154        C  0.49208316  0.97573110  0.44128658    -0.30700
N155        N  0.46374665  0.99729393  0.45484456     0.13500
C156        C  0.44158608  0.97408150  0.47445312    -0.30700
C157        C  0.54395566  0.86604920  0.50069741    -0.31000
N158        N  0.53211106  0.85664626  0.53414647     0.14000
H159        H  0.57088670  0.85798986  0.49037267     0.16700
C160        C  0.49586027  0.86658362  0.53676305    -0.31000
H161        H  0.47847598  0.86047465  0.55967844     0.16700
H162        H  0.41743266  0.98494754  0.48870400     0.16700
H163        H  0.48649593  0.85192108  0.37140368     0.16700
H164        H  0.51457116  0.98704671  0.42564040     0.16700
C165        C  0.20363212  0.77523122  0.14612033     0.87000
C166        C  0.19099884  0.74322884  0.17181393    -0.53200
C167        C  0.21900024  0.72225437  0.18690399     0.10000
C168        C  0.25755251  0.73497375  0.17485236     0.20900
C169        C  0.23084272  0.79987073  0.17029794    -0.53900
C170        C  0.25927768  0.77907263  0.18483145     0.10100
C171        C  0.22799630  0.75300094  0.11777773    -0.53500
C172        C  0.25614531  0.73186152  0.13275636     0.10600
H173        H  0.16273052  0.73776682  0.17945863     0.15100
H174        H  0.28043673  0.71793832  0.18693387     0.00900
H175        H  0.22749307  0.83104773  0.17599322     0.15400
H176        H  0.22269027  0.75318591  0.08850154     0.15200
C177        C  0.78034901  0.75088133  0.74065148     0.87000
C178        C  0.80101172  0.72154735  0.71509283    -0.53200
C179        C  0.77869806  0.69634248  0.69521670     0.10000
C180        C  0.73707561  0.70307509  0.70196502     0.20900
C181        C  0.75341299  0.77122912  0.71459778    -0.53900
C182        C  0.73038892  0.74651924  0.69471196     0.10100
C183        C  0.75568418  0.72501884  0.76366721    -0.53500
C184        C  0.73249173  0.70043759  0.74369304     0.10600
H185        H  0.83054487  0.72078176  0.71101715     0.15100
H186        H  0.71879484  0.68300484  0.68533057     0.00900
H187        H  0.75175038  0.80276650  0.71310997     0.15400
H188        H  0.75673350  0.72627155  0.79334788     0.15200
C189        C  0.51684081  0.49960102  0.05928000     0.30500
C190        C  0.46200798  0.55542090  0.05316195     0.30500
C191        C  0.52423343  0.53967766  0.07836046    -0.05700
C192        C  0.50773285  0.51199383  0.01960344    -0.06400
C193        C  0.47798610  0.48864969  0.07268897    -0.06300
C194        C  0.49633305  0.56752721  0.07685558    -0.05700
C195        C  0.47976781  0.54059094  0.01708986    -0.06400
C196        C  0.45078512  0.51714688  0.07068509    -0.06300
C197        C  0.50884615  0.59923029  0.09839731    -0.31700
N198        N  0.54409414  0.59255749  0.10977746     0.14800
C199        C  0.55383542  0.55626018  0.09732833    -0.31700
H200        H  0.58080634  0.54312767  0.10073049     0.16700
C201        C  0.47421817  0.54783599  0.98070524    -0.30700
N202        N  0.49775329  0.52499253  0.96093065     0.13500
C203        C  0.51776283  0.50260459  0.98374225    -0.30700
C204        C  0.41932614  0.50231957  0.08606735    -0.31000
N205        N  0.42590904  0.46494047  0.09553035     0.14000
H206        H  0.39373596  0.51798377  0.09066988     0.16700
C207        C  0.46178256  0.45647044  0.08751630    -0.31000
H208        H  0.47527192  0.42887829  0.09224659     0.16700
H209        H  0.53668154  0.48020576  0.97405376     0.16700
H210        H  0.49379137  0.62532744  0.10641315     0.16700
H211        H  0.45383632  0.56718957  0.96930271     0.16700
C212        C  0.51390394  0.54043482  0.82425776     0.30500
C213        C  0.45587151  0.48941798  0.83174922     0.30500
C214        C  0.51492690  0.50227582  0.80103578    -0.05700
C215        C  0.50738521  0.52644564  0.86348097    -0.06400
C216        C  0.47507561  0.55656756  0.81482254    -0.06300
C217        C  0.48621370  0.47640397  0.80523637    -0.05700
C218        C  0.47770792  0.50054389  0.86699504    -0.06400
C219        C  0.44552589  0.53058252  0.81864176    -0.06300
C220        C  0.49554935  0.44211642  0.78669759    -0.31700
N221        N  0.52870575  0.44685733  0.77020897     0.14800
C222        C  0.54036492  0.48397461  0.77864893    -0.31700
H223        H  0.56647285  0.49636351  0.77087090     0.16700
C224        C  0.47115087  0.49769565  0.90377494    -0.30700
N225        N  0.49649631  0.51982629  0.92260391     0.13500
C226        C  0.51800463  0.53855051  0.89873121    -0.30700
C227        C  0.41351624  0.55149429  0.81241503    -0.31000
N228        N  0.42264748  0.58816968  0.80357191     0.14000
H229        H  0.38525453  0.54175995  0.81475667     0.16700
C230        C  0.45985394  0.59217033  0.80620102    -0.31000
H231        H  0.47425562  0.61925561  0.80212227     0.16700
H232        H  0.53847844  0.56053997  0.90642437     0.16700
H233        H  0.48073141  0.41485899  0.78821513     0.16700
H234        H  0.44871261  0.48216605  0.91600068     0.16700
O235        O  0.01001266  0.06226137  0.99872849    -0.79600
O236        O  0.93604255  0.06142378  0.91717987    -0.79600
O237        O  0.05716418  0.02321372  0.91968079    -0.79600
O238        O  0.92065394  0.04321222  0.99525588    -0.79600
O239        O  0.01194109  0.06606612  0.91258160    -0.79700
O240        O  0.95545409  0.04350255  0.04605139    -0.79600
O241        O  0.89709634  0.01571935  0.92730723    -0.79600
O242        O  0.05505058  0.01961016  0.99271945    -0.79600
C243        C  0.04374821  0.05331618  0.00356706     1.10100
C244        C  0.90364856  0.04812350  0.91368236     1.10000
C245        C  0.04607607  0.05756942  0.91279573     1.10100
C246        C  0.92809441  0.05698433  0.02821561     1.10000
O247        O  0.93956063  0.97249097  0.01747711    -0.79600
O248        O  0.01310893  0.99270169  0.87252475    -0.79700
O249        O  0.01926428  0.94336971  0.98577820    -0.79600
O250        O  0.93434871  0.94467392  0.93021473    -0.79600
O251        O  0.93980065  0.98224223  0.88244849    -0.79600
O252        O  0.01023792  0.98589198  0.03103678    -0.79600
O253        O  0.88750233  0.97199899  0.98518011    -0.79600
O254        O  0.02373873  0.94612045  0.91055130    -0.79600
Co255      Co  0.97394756  0.01893449  0.00289320     1.51500
Co256      Co  0.97533319  0.02534227  0.89962260     1.51700
Co257      Co  0.03529646  0.98313407  0.95205878     1.51600
Co258      Co  0.93095485  0.99131351  0.96355097     1.51500
O259        O  0.98280426  0.00392410  0.95009621    -1.41500
C260        C  0.90470020  0.96417252  0.01426929     1.10000
C261        C  0.02501148  0.95872374  0.87860938     1.10100
C262        C  0.02142357  0.95228354  0.01961171     1.10000
C263        C  0.93023478  0.94992677  0.89608901     1.10000
C264        C  0.86462538  0.80425678  0.78684372    -0.01500
C265        C  0.84747473  0.83318911  0.80902001     0.07100
C266        C  0.80886511  0.83574602  0.80876201    -0.07400
C267        C  0.78714477  0.80987104  0.78685862     0.04600
C268        C  0.80398784  0.77989392  0.76460897    -0.14700
C269        C  0.84311727  0.77763072  0.76563998    -0.08000
C270        C  0.86943962  0.86231333  0.83130692     0.05500
C271        C  0.87163457  0.90052960  0.81950832    -0.09100
C272        C  0.89171663  0.92925667  0.83959863     0.00500
C273        C  0.91057067  0.91978892  0.87242602     0.00400
C274        C  0.90820143  0.88121292  0.88409431    -0.12700
C275        C  0.88782035  0.85262952  0.86391167     0.00800
C276        C  0.89062118  0.96842609  0.82642617     0.40100
C277        C  0.88514049  0.81385154  0.87766364     0.36800
C278        C  0.90444195  0.80238585  0.78426788     0.36500
C279        C  0.74768334  0.81637853  0.78672473     0.37200
N280        N  0.88944201  0.99968908  0.81562092    -0.43500
N281        N  0.88279728  0.78276881  0.88865754    -0.44000
N282        N  0.71624697  0.82277001  0.78611946    -0.41400
N283        N  0.93632283  0.80122747  0.78191839    -0.42800
H284        H  0.85794846  0.75544244  0.75017255     0.13400
H285        H  0.79564017  0.85857057  0.82539579     0.09900
H286        H  0.85719627  0.90802315  0.79455860     0.10900
H287        H  0.92193739  0.87339549  0.90928995     0.16700
C288        C  0.67001681  0.61297439  0.75698838    -0.01500
C289        C  0.64642664  0.62703595  0.78490692     0.07100
C290        C  0.65268843  0.66411603  0.80116334    -0.07400
C291        C  0.68123545  0.68793674  0.78937269     0.04600
C292        C  0.70418682  0.67481703  0.76017329    -0.14700
C293        C  0.69844299  0.63691838  0.74471970    -0.08000
C294        C  0.61291443  0.60536003  0.79535808     0.05500
C295        C  0.61557642  0.57618546  0.82090060    -0.09100
C296        C  0.58403341  0.55570949  0.83144240     0.00500
C297        C  0.54839531  0.56529674  0.81726467     0.00400
C298        C  0.54701212  0.59268366  0.78950729    -0.12700
C299        C  0.57828059  0.61355759  0.77959725     0.00800
C300        C  0.58990940  0.52292966  0.85437107     0.40100
C301        C  0.57433898  0.64271709  0.75239120     0.36800
C302        C  0.66498923  0.57444646  0.74010562     0.36500
C303        C  0.68471916  0.72610642  0.80718148     0.37200
N304        N  0.59490805  0.49650655  0.87252212    -0.43500
N305        N  0.57117628  0.66627972  0.73080626    -0.44000
N306        N  0.68680742  0.75617461  0.82268164    -0.41400
N307        N  0.66101842  0.54347099  0.72673942    -0.42800
H308        H  0.71604309  0.62602477  0.72280138     0.13400
H309        H  0.63442333  0.67491799  0.82260564     0.09900
H310        H  0.64253105  0.56886795  0.83207973     0.10900
H311        H  0.52216450  0.59645323  0.77346855     0.16700
C312        C  0.10723485  0.81674714  0.11937276    -0.01500
C313        C  0.11693864  0.84824528  0.09808965     0.07100
C314        C  0.15435821  0.85553791  0.09190090    -0.07400
C315        C  0.18218027  0.83214299  0.10671542     0.04600
C316        C  0.17299566  0.80025180  0.12858410    -0.14700
C317        C  0.13487293  0.79299952  0.13394162    -0.08000
C318        C  0.08856315  0.87318183  0.08077888     0.05500
C319        C  0.08258820  0.91129242  0.09502778    -0.09100
C320        C  0.05889069  0.93706525  0.07710945     0.00500
C321        C  0.04082433  0.92473438  0.04396621     0.00400
C322        C  0.04561352  0.88574928  0.03095217    -0.12700
C323        C  0.06925942  0.86017751  0.04888129     0.00800
C324        C  0.05549415  0.97642169  0.09241602     0.40100
C325        C  0.07491111  0.82136948  0.03292634     0.36800
C326        C  0.06897886  0.80864821  0.12715854     0.36500
C327        C  0.22001086  0.84240411  0.09946241     0.37200
N328        N  0.05287204  0.00791387  0.10487097    -0.43500
N329        N  0.07957079  0.79030182  0.02014156    -0.44000
N330        N  0.25019336  0.85137141  0.09385829    -0.41400
N331        N  0.03837704  0.80221523  0.13361206    -0.42800
H332        H  0.12547496  0.76881121  0.14934923     0.13400
H333        H  0.16187537  0.87971915  0.07523391     0.09900
H334        H  0.09737037  0.92127441  0.11968231     0.10900
H335        H  0.03197374  0.87552228  0.00574571     0.16700
C336        C  0.40489586  0.64896396  0.06784998    -0.01500
C337        C  0.36853661  0.63455311  0.06288572     0.07100
C338        C  0.36360238  0.59772548  0.04501612    -0.07400
C339        C  0.39423523  0.57367603  0.03677151     0.04600
C340        C  0.43016982  0.58517294  0.04897998    -0.14700
C341        C  0.43505513  0.62485860  0.05916880    -0.08000
C342        C  0.33604601  0.65717896  0.07715509     0.05500
C343        C  0.32882968  0.69462645  0.06453061    -0.09100
C344        C  0.30230332  0.71912330  0.08132017     0.00500
C345        C  0.28194365  0.70605548  0.11120284     0.00400
C346        C  0.28807578  0.66793093  0.12271785    -0.12700
C347        C  0.31470961  0.64355457  0.10604324     0.00800
C348        C  0.29907814  0.75849300  0.06918287     0.40100
C349        C  0.32097035  0.60542910  0.12037867     0.36800
C350        C  0.41223386  0.68749390  0.08387650     0.36500
C351        C  0.38843049  0.53816443  0.01478691     0.37200
N352        N  0.29730515  0.78996990  0.05901447    -0.43500
N353        N  0.32594607  0.57485720  0.13184539    -0.44000
N354        N  0.38430026  0.51003723  0.99652493    -0.41400
N355        N  0.41825410  0.71826697  0.09687512    -0.42800
H356        H  0.46227109  0.63755439  0.06000677     0.13400
H357        H  0.33587360  0.58752920  0.03811772     0.09900
H358        H  0.34517973  0.70539573  0.04244489     0.10900
H359        H  0.27250105  0.65738429  0.14543920     0.16700
C360        C  0.60033451  0.78716893  0.57354290    -0.01500
C361        C  0.60789896  0.80504289  0.60821785     0.07100
C362        C  0.58791300  0.83853572  0.61944788    -0.07400
C363        C  0.56135084  0.85481469  0.59608879     0.04600
C364        C  0.55474016  0.83761672  0.56084962    -0.14700
C365        C  0.57410804  0.80356439  0.55018362    -0.08000
C366        C  0.63853718  0.79054360  0.63160537     0.05500
C367        C  0.67412602  0.80587571  0.62747794    -0.09100
C368        C  0.70453246  0.79104481  0.64665977     0.00500
C369        C  0.69945697  0.76091507  0.67138649     0.00400
C370        C  0.66380283  0.74519881  0.67507007    -0.12700
C371        C  0.63353081  0.75952577  0.65518438     0.00800
C372        C  0.74092218  0.80560621  0.63879846     0.40100
C373        C  0.59769699  0.74160440  0.65875734     0.36800
C374        C  0.62015827  0.75265515  0.56102610     0.36500
C375        C  0.54299056  0.89051924  0.60776158     0.37200
N376        N  0.77016123  0.81699218  0.63235839    -0.43500
N377        N  0.56894698  0.72717247  0.66126874    -0.44000
N378        N  0.52824037  0.91918529  0.61702684    -0.41400
N379        N  0.63619169  0.72496844  0.55128994    -0.42800
H380        H  0.56927479  0.79034816  0.52309265     0.13400
H381        H  0.59383055  0.85255762  0.64601867     0.09900
H382        H  0.67829552  0.82879067  0.60836729     0.10900
H383        H  0.65947512  0.72195493  0.69379090     0.16700
C384        C  0.29838824  0.82724220  0.27182195    -0.01500
C385        C  0.33632725  0.81772088  0.26925167     0.07100
C386        C  0.34935469  0.79975270  0.23673743    -0.07400
C387        C  0.32498340  0.78924616  0.20788063     0.04600
C388        C  0.28673289  0.79638499  0.21140429    -0.14700
C389        C  0.27400190  0.81674511  0.24291727    -0.08000
C390        C  0.36235891  0.82405077  0.30085884     0.05500
C391        C  0.35588467  0.80455234  0.33316027    -0.09100
C392        C  0.37943309  0.80977092  0.36374221     0.00500
C393        C  0.41013911  0.83520650  0.36251303     0.00400
C394        C  0.41736166  0.85344550  0.32959377    -0.12700
C395        C  0.39388806  0.84809470  0.29897531     0.00800
C396        C  0.37199530  0.78790467  0.39568572     0.40100
C397        C  0.40203760  0.86863941  0.26637367     0.36800
C398        C  0.28373816  0.84692614  0.30416812     0.36500
C399        C  0.34001165  0.77146697  0.17487532     0.37200
N400        N  0.36594154  0.77034605  0.42127777    -0.43500
N401        N  0.40861993  0.88500912  0.24020370    -0.44000
N402        N  0.35248459  0.75753909  0.14845932    -0.41400
N403        N  0.27200177  0.86262023  0.33013414    -0.42800
H404        H  0.24465909  0.82251681  0.24583378     0.13400
H405        H  0.37852255  0.79282079  0.23433347     0.09900
H406        H  0.33234460  0.78502777  0.33440300     0.10900
H407        H  0.44073411  0.87299844  0.32807449     0.16700
C408        C  0.77320391  0.13439961  0.81553285    -0.01500
C409        C  0.80164115  0.10826724  0.80559994     0.07100
C410        C  0.80619086  0.09757271  0.76850224    -0.07400
C411        C  0.78371681  0.11365565  0.74128172     0.04600
C412        C  0.75555681  0.14108475  0.75084879    -0.14700
C413        C  0.75070750  0.15041810  0.78858465    -0.08000
C414        C  0.82786084  0.09354295  0.83362744     0.05500
C415        C  0.81471236  0.06889968  0.86021870    -0.09100
C416        C  0.83827586  0.05533538  0.88771270     0.00500
C417        C  0.87610597  0.06632460  0.88888616     0.00400
C418        C  0.88884134  0.09198710  0.86273861    -0.12700
C419        C  0.86519106  0.10551264  0.83532276     0.00800
C420        C  0.82261172  0.03051408  0.91444095     0.40100
C421        C  0.87973323  0.13209314  0.80948531     0.36800
C422        C  0.76821371  0.14746969  0.85323077     0.36500
C423        C  0.79162031  0.10295189  0.70359635     0.37200
N424        N  0.80994080  0.01068144  0.93584837    -0.43500
N425        N  0.89135779  0.15344132  0.78880335    -0.44000
N426        N  0.79798106  0.09440442  0.67339127    -0.41400
N427        N  0.76434262  0.15801629  0.88340287    -0.42800
H428        H  0.73120788  0.17213286  0.79803112     0.13400
H429        H  0.82811382  0.07738842  0.76072097     0.09900
H430        H  0.78583684  0.06022521  0.85943875     0.10900
H431        H  0.91768697  0.10071760  0.86296513     0.16700
C432        C  0.61756917  0.29321604  0.69340745    -0.01500
C433        C  0.61929133  0.31609623  0.72637024     0.07100
C434        C  0.64263607  0.30433373  0.75478696    -0.07400
C435        C  0.66582070  0.27198473  0.75014047     0.04600
C436        C  0.66374285  0.24847676  0.71731238    -0.14700
C437        C  0.63867092  0.25903786  0.68968257    -0.08000
C438        C  0.59678665  0.35206717  0.73241106     0.05500
C439        C  0.55832057  0.35011359  0.72710271    -0.09100
C440        C  0.53567600  0.38200459  0.73652145     0.00500
C441        C  0.55127502  0.41604292  0.75387025     0.00400
C442        C  0.59009017  0.41854194  0.75724096    -0.12700
C443        C  0.61279172  0.38746837  0.74594814     0.00800
C444        C  0.49684348  0.37892561  0.72719893     0.40100
C445        C  0.65243651  0.39273558  0.74869881     0.36800
C446        C  0.59654563  0.30562749  0.66211958     0.36500
C447        C  0.69373905  0.26645865  0.77811111     0.37200
N448        N  0.46576939  0.37605270  0.71947795    -0.43500
N449        N  0.68415126  0.39714814  0.75090000    -0.44000
N450        N  0.71623317  0.26233254  0.80044960    -0.41400
N451        N  0.57998654  0.31584407  0.63696471    -0.42800
H452        H  0.63663035  0.24154444  0.66435447     0.13400
H453        H  0.64388431  0.32154276  0.78036119     0.09900
H454        H  0.54575943  0.32325225  0.71618404     0.10900
H455        H  0.60305931  0.44428326  0.76987532     0.16700
C456        C  0.84488800  0.88240579  0.16255030    -0.01500
C457        C  0.82654020  0.90807816  0.13939061     0.07100
C458        C  0.78915938  0.91657574  0.14550970    -0.07400
C459        C  0.76963746  0.89871092  0.17332248     0.04600
C460        C  0.78736252  0.87101980  0.19571566    -0.14700
C461        C  0.82559593  0.86447883  0.19030093    -0.08000
C462        C  0.84556338  0.92401780  0.10729606     0.05500
C463        C  0.83644685  0.90892570  0.07199909    -0.09100
C464        C  0.85579500  0.92065263  0.04124089     0.00500
C465        C  0.88502733  0.94788857  0.04559626     0.00400
C466        C  0.89403128  0.96293659  0.08096767    -0.12700
C467        C  0.87440944  0.95163505  0.11156201     0.00800
C468        C  0.84625112  0.90301605  0.00583750     0.40100
C469        C  0.88380379  0.96947852  0.14693531     0.36800
C470        C  0.88326002  0.87223445  0.15697663     0.36500
C471        C  0.73099198  0.90856015  0.17731214     0.37200
N472        N  0.83874835  0.88866807  0.97749468    -0.43500
N473        N  0.89135795  0.98403679  0.17517515    -0.44000
N474        N  0.70008210  0.91667040  0.18052143    -0.41400
N475        N  0.91398030  0.86417941  0.15232233    -0.42800
H476        H  0.84098194  0.84430000  0.20624213     0.13400
H477        H  0.77495981  0.93663759  0.12794773     0.09900
H478        H  0.81462522  0.88729111  0.06858728     0.10900
H479        H  0.91585060  0.98455135  0.08465631     0.16700
C480        C  0.58881648  0.68919954  0.13339236    -0.01500
C481        C  0.61514282  0.67924412  0.16012014     0.07100
C482        C  0.61757369  0.64046509  0.17079066    -0.07400
C483        C  0.59423278  0.61151452  0.15498270     0.04600
C484        C  0.56800003  0.62134786  0.12780553    -0.14700
C485        C  0.56560004  0.66039316  0.11753192    -0.08000
C486        C  0.64096648  0.70895160  0.17636436     0.05500
C487        C  0.62770648  0.73697251  0.20197735    -0.09100
C488        C  0.65092009  0.76662637  0.21658324     0.00500
C489        C  0.68793922  0.76884284  0.20497089     0.00400
C490        C  0.70109849  0.74071860  0.17928629    -0.12700
C491        C  0.67805204  0.71069093  0.16523863     0.00800
C492        C  0.63569996  0.79491606  0.24259739     0.40100
C493        C  0.69288740  0.68201211  0.13935469     0.36800
C494        C  0.58595146  0.72860589  0.12105700     0.36500
C495        C  0.59723423  0.57236300  0.16782079     0.37200
N496        N  0.62312560  0.81733170  0.26346960    -0.43500
N497        N  0.70466793  0.65880671  0.11875578    -0.44000
N498        N  0.59985934  0.54093095  0.17801694    -0.41400
N499        N  0.58378752  0.76020124  0.11119934    -0.42800
H500        H  0.54603991  0.66827333  0.09636759     0.13400
H501        H  0.63777758  0.63286767  0.19150515     0.09900
H502        H  0.59909037  0.73571860  0.21040416     0.10900
H503        H  0.72968123  0.74177383  0.17074091     0.16700
C504        C  0.64775802  0.91200008  0.31887776    -0.01500
C505        C  0.63863390  0.89026166  0.34948426     0.07100
C506        C  0.65926367  0.85657599  0.35631788    -0.07400
C507        C  0.68765921  0.84383398  0.33310996     0.04600
C508        C  0.69461380  0.86348822  0.30058323    -0.14700
C509        C  0.67500609  0.89821167  0.29450189    -0.08000
C510        C  0.60684079  0.90055889  0.37390286     0.05500
C511        C  0.57150676  0.90672310  0.35867824    -0.09100
C512        C  0.54030899  0.91113592  0.38096053     0.00500
C513        C  0.54329976  0.90502798  0.41901579     0.00400
C514        C  0.57934011  0.90606325  0.43426435    -0.12700
C515        C  0.61075438  0.90267495  0.41236223     0.00800
C516        C  0.50657493  0.92493626  0.36435594     0.40100
C517        C  0.64666665  0.90169552  0.43016074     0.36800
C518        C  0.63009849  0.94889147  0.31229034     0.36500
C519        C  0.70977539  0.81138636  0.34465637     0.37200
N520        N  0.47985197  0.93676934  0.35100150    -0.43500
N521        N  0.67535399  0.90061029  0.44454056    -0.44000
N522        N  0.72693639  0.78542147  0.35494449    -0.41400
N523        N  0.61600435  0.97855876  0.30722292    -0.42800
H524        H  0.68025400  0.91423285  0.27018091     0.13400
H525        H  0.65296193  0.83977373  0.37992940     0.09900
H526        H  0.56807029  0.90772258  0.32925559     0.10900
H527        H  0.58349961  0.91086903  0.46332568     0.16700
C528        C  0.82733177  0.55141228  0.58290952    -0.01500
C529        C  0.84415402  0.58811899  0.58810147     0.07100
C530        C  0.87200863  0.59874429  0.56407828    -0.07400
C531        C  0.88264876  0.57350231  0.53459145     0.04600
C532        C  0.86583250  0.53608135  0.52907274    -0.14700
C533        C  0.83730999  0.52667263  0.55339239    -0.08000
C534        C  0.82877286  0.61729227  0.61514546     0.05500
C535        C  0.83989401  0.61658282  0.65196371    -0.09100
C536        C  0.82316040  0.64122132  0.67855454     0.00500
C537        C  0.79443161  0.66696745  0.66847565     0.00400
C538        C  0.78287573  0.66705310  0.63171100    -0.12700
C539        C  0.79991834  0.64265401  0.60510406     0.00800
C540        C  0.83533401  0.63891777  0.71618254     0.40100
C541        C  0.78730341  0.64370007  0.56754259     0.36800
C542        C  0.79761343  0.53962196  0.60608407     0.36500
C543        C  0.90758446  0.58894210  0.50833593     0.37200
N544        N  0.84505020  0.63732337  0.74636109    -0.43500
N545        N  0.77753661  0.64422957  0.53731009    -0.44000
N546        N  0.92702630  0.60196114  0.48711581    -0.41400
N547        N  0.77383547  0.53023215  0.62466794    -0.42800
H548        H  0.82011963  0.50124768  0.54819887     0.13400
H549        H  0.88404124  0.62772126  0.56720592     0.09900
H550        H  0.86134695  0.59637654  0.65997816     0.10900
H551        H  0.76114290  0.68689203  0.62362371     0.16700
C552        C  0.85372842  0.33677391  0.58436806    -0.01500
C553        C  0.82211347  0.31362312  0.57696737     0.07100
C554        C  0.80191863  0.31827794  0.54442969    -0.07400
C555        C  0.81188980  0.34675913  0.52001762     0.04600
C556        C  0.84267667  0.37118718  0.52807743    -0.14700
C557        C  0.86382363  0.36519477  0.55991922    -0.08000
C558        C  0.80634462  0.28878222  0.60503052     0.05500
C559        C  0.77604615  0.30333150  0.62463776    -0.09100
C560        C  0.75869256  0.28087567  0.65035270     0.00500
C561        C  0.77081132  0.24229174  0.65584494     0.00400
C562        C  0.80258702  0.22854035  0.63769875    -0.12700
C563        C  0.82053198  0.25160696  0.61253341     0.00800
C564        C  0.73026002  0.29957238  0.67206366     0.40100
C565        C  0.85285226  0.23634698  0.59421574     0.36800
C566        C  0.87466552  0.33354184  0.61799727     0.36500
C567        C  0.78816233  0.35264672  0.48868116     0.37200
N568        N  0.70843275  0.31659742  0.68917984    -0.43500
N569        N  0.87895881  0.22420196  0.57974805    -0.44000
N570        N  0.76913164  0.35743006  0.46355927    -0.41400
N571        N  0.89127766  0.33083194  0.64504108    -0.42800
H572        H  0.88737664  0.38394191  0.56640437     0.13400
H573        H  0.77719038  0.30089957  0.53903543     0.09900
H574        H  0.76608799  0.33262712  0.61995044     0.10900
H575        H  0.81251703  0.19919781  0.64207592     0.16700
C576        C  0.78831440  0.65999124  0.38815526    -0.01500
C577        C  0.80952421  0.66844378  0.35740355     0.07100
C578        C  0.83924433  0.64410255  0.34763650    -0.07400
C579        C  0.84733556  0.61089080  0.36735334     0.04600
C580        C  0.82535895  0.60153750  0.39743769    -0.14700
C581        C  0.79650311  0.62684662  0.40804932    -0.08000
C582        C  0.79897932  0.70032231  0.33308332     0.05500
C583        C  0.81459166  0.73763788  0.33874518    -0.09100
C584        C  0.80413297  0.76832529  0.31650753     0.00500
C585        C  0.77776034  0.76163415  0.28806629     0.00400
C586        C  0.76242204  0.72421096  0.28238722    -0.12700
C587        C  0.77293588  0.69362882  0.30449466     0.00800
C588        C  0.81868916  0.80696305  0.32496512     0.40100
C589        C  0.75651650  0.65554179  0.29766969     0.36800
C590        C  0.75747246  0.68440485  0.39905194     0.36500
C591        C  0.87868890  0.58722713  0.35656988     0.37200
N592        N  0.82997637  0.83809324  0.33172917    -0.43500
N593        N  0.74356390  0.62488249  0.29244133    -0.44000
N594        N  0.90371030  0.56802852  0.34796680    -0.41400
N595        N  0.73275261  0.70404177  0.40765366    -0.42800
H596        H  0.77973448  0.62000148  0.43127123     0.13400
H597        H  0.85565483  0.65064928  0.32406552     0.09900
H598        H  0.83436481  0.74292820  0.36096870     0.10900
H599        H  0.74205973  0.71891603  0.26067795     0.16700
C600        C  0.08651071  0.13763192  0.85829933    -0.01500
C601        C  0.12412804  0.13659822  0.86874107     0.07100
C602        C  0.13569651  0.11182155  0.89620557    -0.07400
C603        C  0.11049143  0.08688570  0.91224828     0.04600
C604        C  0.07294945  0.08676466  0.90076579    -0.14700
C605        C  0.06125289  0.11312072  0.87454784    -0.08000
C606        C  0.15188737  0.15917969  0.84914747     0.05500
C607        C  0.15148244  0.19996647  0.85273314    -0.09100
C608        C  0.17382799  0.22247477  0.83088678     0.00500
C609        C  0.19766166  0.20412451  0.80472473     0.00400
C610        C  0.19906749  0.16285603  0.80287058    -0.12700
C611        C  0.17618388  0.14054622  0.82434537     0.00800
C612        C  0.17066954  0.26447852  0.83524144     0.40100
C613        C  0.17655940  0.09849315  0.81892258     0.36800
C614        C  0.07370656  0.16179441  0.82926464     0.36500
C615        C  0.12397872  0.06174139  0.94019565     0.37200
N616        N  0.16797144  0.29811018  0.83857899    -0.43500
N617        N  0.17663455  0.06483847  0.81443712    -0.44000
N618        N  0.13494767  0.04156801  0.96250776    -0.41400
N619        N  0.06374175  0.18111386  0.80586845    -0.42800
H620        H  0.03262228  0.11318743  0.86524958     0.13400
H621        H  0.16464870  0.11128916  0.90439790     0.09900
H622        H  0.13265672  0.21426794  0.87187102     0.10900
H623        H  0.21722463  0.14708452  0.78446428     0.16700
C624        C  0.31167137  0.36121931  0.83822102    -0.01500
C625        C  0.34672300  0.36415336  0.82228285     0.07100
C626        C  0.35647819  0.33804587  0.79363708    -0.07400
C627        C  0.33132469  0.31025938  0.77942438     0.04600
C628        C  0.29556125  0.30793313  0.79434825    -0.14700
C629        C  0.28646298  0.33297570  0.82438945    -0.08000
C630        C  0.37140770  0.39795036  0.83009623     0.05500
C631        C  0.40421350  0.39319443  0.85017876    -0.09100
C632        C  0.43129814  0.42263086  0.85209907     0.00500
C633        C  0.42548621  0.45821179  0.83400102     0.00400
C634        C  0.39333104  0.46095743  0.81202696    -0.12700
C635        C  0.36586250  0.43237089  0.81129604     0.00800
C636        C  0.46605548  0.41355291  0.86975856     0.40100
C637        C  0.33316877  0.43770097  0.78882516     0.36800
C638        C  0.30081718  0.38763386  0.86793623     0.36500
C639        C  0.34350996  0.28490615  0.74953735     0.37200
N640        N  0.49392711  0.40600569  0.88374305    -0.43500
N641        N  0.30681233  0.44184538  0.77108607    -0.44000
N642        N  0.35457270  0.26551421  0.72545836    -0.41400
N643        N  0.29227058  0.40885307  0.89179329    -0.42800
H644        H  0.25918426  0.33138293  0.83622165     0.13400
H645        H  0.38342748  0.34061167  0.78122443     0.09900
H646        H  0.40940134  0.36564817  0.86291901     0.10900
H647        H  0.39048286  0.48355092  0.79266913     0.16700
C648        C  0.81791716  0.20971826  0.07393549    -0.01500
C649        C  0.83296870  0.17789677  0.09235659     0.07100
C650        C  0.82658289  0.17535876  0.12979845    -0.07400
C651        C  0.80544433  0.20344350  0.14898300     0.04600
C652        C  0.78847550  0.23471097  0.13047986    -0.14700
C653        C  0.79564217  0.23738608  0.09277799    -0.08000
C654        C  0.85737352  0.14801392  0.07411374     0.05500
C655        C  0.89405997  0.14457122  0.08671628    -0.09100
C656        C  0.91769789  0.11566161  0.07201695     0.00500
C657        C  0.90460297  0.08890024  0.04430435     0.00400
C658        C  0.86793674  0.09273068  0.03137159    -0.12700
C659        C  0.84437395  0.12181168  0.04599575     0.00800
C660        C  0.95557464  0.11515867  0.08501837     0.40100
C661        C  0.80673081  0.12343802  0.03238183     0.36800
C662        C  0.82670256  0.21578787  0.03621295     0.36500
C663        C  0.80258464  0.19961711  0.18803794     0.37200
N664        N  0.98601764  0.11473671  0.09520658    -0.43500
N665        N  0.77664254  0.12481417  0.02126025    -0.44000
N666        N  0.80036457  0.19644110  0.21930064    -0.41400
N667        N  0.83397747  0.22067625  0.00604186    -0.42800
H668        H  0.78538703  0.26174070  0.07784086     0.13400
H669        H  0.83881718  0.15147381  0.14434418     0.09900
H670        H  0.90432588  0.16477289  0.10813546     0.10900
H671        H  0.85734203  0.07248996  0.01013455     0.16700
C672        C  0.62961771  0.36587615  0.13351040    -0.01500
C673        C  0.63704554  0.39547760  0.10860920     0.07100
C674        C  0.67412088  0.40154408  0.09874733    -0.07400
C675        C  0.70297174  0.37833059  0.11232816     0.04600
C676        C  0.69522210  0.34896868  0.13703372    -0.14700
C677        C  0.65853668  0.34342953  0.14757107    -0.08000
C678        C  0.60678105  0.42135615  0.09440876     0.05500
C679        C  0.58279653  0.43958367  0.11950566    -0.09100
C680        C  0.55320694  0.46268665  0.10821975     0.00500
C681        C  0.54732911  0.47024090  0.07044437     0.00400
C682        C  0.57214506  0.45266473  0.04535467    -0.12700
C683        C  0.60127104  0.42831241  0.05682878     0.00800
C684        C  0.52999593  0.47916671  0.13684613     0.40100
C685        C  0.62496355  0.41059759  0.02936438     0.36800
C686        C  0.59248053  0.35722151  0.14481451     0.36500
C687        C  0.74045276  0.38606210  0.10162123     0.37200
N688        N  0.51140375  0.49222875  0.15978208    -0.43500
N689        N  0.64415185  0.39656407  0.00742012    -0.44000
N690        N  0.77054967  0.39227903  0.09317057    -0.41400
N691        N  0.56283446  0.35041670  0.15427432    -0.42800
H692        H  0.65227982  0.32076578  0.16638922     0.13400
H693        H  0.68069525  0.42485482  0.08077585     0.09900
H694        H  0.58727977  0.43586598  0.14854120     0.10900
H695        H  0.56967485  0.45805649  0.01667076     0.16700
C696        C  0.82784006  0.33837068  0.28688838    -0.01500
C697        C  0.82241884  0.37896613  0.29306289     0.07100
C698        C  0.80185960  0.39939288  0.26704024    -0.07400
C699        C  0.78499234  0.37984033  0.23671487     0.04600
C700        C  0.78990747  0.33921181  0.23099963    -0.14700
C701        C  0.81224929  0.31914385  0.25577308    -0.08000
C702        C  0.83496776  0.40008707  0.32774056     0.05500
C703        C  0.87204738  0.39818099  0.33981481    -0.09100
C704        C  0.88388234  0.41675084  0.37309844     0.00500
C705        C  0.85926230  0.44152230  0.39316881     0.00400
C706        C  0.82160271  0.44042420  0.38209642    -0.12700
C707        C  0.80945671  0.42038477  0.35019230     0.00800
C708        C  0.91868640  0.40398824  0.38798637     0.40100
C709        C  0.77021707  0.41994249  0.34200284     0.36800
C710        C  0.84695298  0.31516895  0.31324284     0.36500
C711        C  0.76271932  0.40215972  0.21206747     0.37200
N712        N  0.94634950  0.39198011  0.39924069    -0.43500
N713        N  0.73879357  0.41959361  0.33547121    -0.44000
N714        N  0.74468544  0.42023003  0.19259786    -0.41400
N715        N  0.86217180  0.29650318  0.33438696    -0.42800
H716        H  0.81586520  0.28780737  0.25186256     0.13400
H717        H  0.79788567  0.43065480  0.27116119     0.09900
H718        H  0.89155430  0.38066527  0.32394467     0.10900
H719        H  0.80101594  0.45537187  0.39881460     0.16700
C720        C  0.59159632  0.10685178  0.52061077    -0.01500
C721        C  0.59836931  0.13982155  0.54395019     0.07100
C722        C  0.57812362  0.17399642  0.53868008    -0.07400
C723        C  0.54963549  0.17488485  0.51233648     0.04600
C724        C  0.53909119  0.14009745  0.49216630    -0.14700
C725        C  0.56277928  0.10753745  0.49451799    -0.08000
C726        C  0.62663029  0.13983993  0.57384433     0.05500
C727        C  0.66304574  0.15097221  0.56665226    -0.09100
C728        C  0.68909625  0.15634581  0.59521996     0.00500
C729        C  0.67880418  0.15049087  0.63164969     0.00400
C730        C  0.64289818  0.13736566  0.63857095    -0.12700
C731        C  0.61682097  0.13207398  0.61000715     0.00800
C732        C  0.72611553  0.16827539  0.58654568     0.40100
C733        C  0.57968307  0.12027300  0.61850270     0.36800
C734        C  0.61386824  0.07206345  0.52297906     0.36500
C735        C  0.53318913  0.21241962  0.50571563     0.37200
N736        N  0.75581580  0.17745235  0.57921103    -0.43500
N737        N  0.54987489  0.11080921  0.62516214    -0.44000
N738        N  0.52022116  0.24261321  0.50047479    -0.41400
N739        N  0.63176047  0.04417250  0.52480380    -0.42800
H740        H  0.55936639  0.08263656  0.47564682     0.13400
H741        H  0.58481520  0.20021465  0.55513926     0.09900
H742        H  0.67075643  0.15670155  0.53884010     0.10900
H743        H  0.63463358  0.13333418  0.66654880     0.16700
C744        C  0.29581259  0.22628295  0.63119661    -0.01500
C745        C  0.32582301  0.20021354  0.63287729     0.07100
C746        C  0.33412383  0.18215215  0.66569089    -0.07400
C747        C  0.31342243  0.19066501  0.69712702     0.04600
C748        C  0.28428682  0.21804935  0.69577410    -0.14700
C749        C  0.27544265  0.23510804  0.66258224    -0.08000
C750        C  0.35019085  0.19347815  0.60121511     0.05500
C751        C  0.37968586  0.21927480  0.59672813    -0.09100
C752        C  0.40310905  0.21449891  0.56678936     0.00500
C753        C  0.39671545  0.18381346  0.54052346     0.00400
C754        C  0.36692653  0.15822453  0.54489251    -0.12700
C755        C  0.34392009  0.16258506  0.57527128     0.00800
C756        C  0.43303524  0.24188061  0.56315602     0.40100
C757        C  0.31447745  0.13481034  0.57972681     0.36800
C758        C  0.28576021  0.24470754  0.59770189     0.36500
C759        C  0.32438656  0.17335082  0.73091293     0.37200
N760        N  0.45701713  0.26392322  0.56051620    -0.43500
N761        N  0.29101036  0.11243523  0.58356473    -0.44000
N762        N  0.33331268  0.15961397  0.75802053    -0.41400
N763        N  0.27750922  0.25943711  0.57089094    -0.42800
H764        H  0.25274855  0.25575036  0.66125279     0.13400
H765        H  0.35741180  0.16224701  0.66693696     0.09900
H766        H  0.38434710  0.24316841  0.61668586     0.10900
H767        H  0.36228572  0.13432147  0.52499060     0.16700
C768        C  0.63247837  0.22006159  0.23107035    -0.01500
C769        C  0.63082073  0.23329220  0.26798209     0.07100
C770        C  0.65655894  0.26103120  0.28149313    -0.07400
C771        C  0.68435827  0.27508187  0.25913892     0.04600
C772        C  0.68655185  0.26152406  0.22213387    -0.14700
C773        C  0.66005219  0.23428880  0.20850495    -0.08000
C774        C  0.60404164  0.21699062  0.29376367     0.05500
C775        C  0.61295674  0.18212665  0.31064812    -0.09100
C776        C  0.58993825  0.16721919  0.33727238     0.00500
C777        C  0.55726634  0.18725113  0.34732380     0.00400
C778        C  0.54780893  0.22155657  0.32962988    -0.12700
C779        C  0.57104910  0.23668942  0.30323464     0.00800
C780        C  0.59982473  0.13079935  0.35324625     0.40100
C781        C  0.56078307  0.27258659  0.28644585     0.36800
C782        C  0.60639575  0.19166433  0.21590604     0.36500
C783        C  0.71124529  0.30147192  0.27599211     0.37200
N784        N  0.60771168  0.10154750  0.36603058    -0.43500
N785        N  0.55259109  0.30137657  0.27297894    -0.44000
N786        N  0.73213548  0.32256516  0.29071582    -0.41400
N787        N  0.58552343  0.16888915  0.20367081    -0.42800
H788        H  0.66101209  0.22387009  0.18012931     0.13400
H789        H  0.65552205  0.27091955  0.31002789     0.09900
H790        H  0.63822709  0.16680512  0.30329917     0.10900
H791        H  0.52261285  0.23692313  0.33709990     0.16700
C792        C  0.13551823  0.89825665  0.74292144    -0.01500
C793        C  0.11170517  0.87861793  0.76614406     0.07100
C794        C  0.10968166  0.83789087  0.76315008    -0.07400
C795        C  0.13156587  0.81638122  0.73833777     0.04600
C796        C  0.15681900  0.83555685  0.71546400    -0.14700
C797        C  0.15778662  0.87685707  0.71803496    -0.08000
C798        C  0.08958265  0.89942518  0.79491354     0.05500
C799        C  0.05823590  0.92090227  0.78496988    -0.09100
C800        C  0.03587681  0.93919244  0.81172930     0.00500
C801        C  0.04487052  0.93618030  0.84930830     0.00400
C802        C  0.07598317  0.91410046  0.85906517    -0.12700
C803        C  0.09829629  0.89597024  0.83233807     0.00800
C804        C  0.00327120  0.95977486  0.79988714     0.40100
C805        C  0.13064760  0.87476515  0.84390396     0.36800
C806        C  0.13846906  0.94033647  0.74494160     0.36500
C807        C  0.12692065  0.77445371  0.73706074     0.37200
N808        N  0.97707670  0.97611546  0.79031529    -0.43500
N809        N  0.15662591  0.85780550  0.85308412    -0.44000
N810        N  0.12232968  0.74098333  0.73578640    -0.41400
N811        N  0.14093275  0.97405978  0.74639295    -0.42800
H812        H  0.17625341  0.89311999  0.70150350     0.13400
H813        H  0.09100932  0.82273080  0.78071023     0.09900
H814        H  0.05100538  0.92297225  0.75624395     0.10900
H815        H  0.08365125  0.91200406  0.88768229     0.16700
C816        C  0.35157841  0.62771246  0.73995481    -0.01500
C817        C  0.34749704  0.66631426  0.75414132     0.07100
C818        C  0.36885799  0.67926032  0.78461974    -0.07400
C819        C  0.39402094  0.65404181  0.80116696     0.04600
C820        C  0.39757733  0.61522845  0.78736785    -0.14700
C821        C  0.37637502  0.60251422  0.75670761    -0.08000
C822        C  0.31901271  0.69244621  0.73913376     0.05500
C823        C  0.28391672  0.69280808  0.75475087    -0.09100
C824        C  0.25528353  0.71530299  0.74046713     0.00500
C825        C  0.26172823  0.73834048  0.70993480     0.00400
C826        C  0.29712606  0.73793879  0.69442770    -0.12700
C827        C  0.32568306  0.71519677  0.70875273     0.00800
C828        C  0.21925996  0.71206698  0.75652879     0.40100
C829        C  0.36152740  0.71543614  0.69186544     0.36800
C830        C  0.33023258  0.61324091  0.70857943     0.36500
C831        C  0.41471324  0.66789268  0.83310597     0.37200
N832        N  0.19072024  0.70885175  0.77000157    -0.43500
N833        N  0.39029267  0.71559811  0.67837295    -0.44000
N834        N  0.43132924  0.67892751  0.85876567    -0.41400
N835        N  0.31319184  0.60162020  0.68340502    -0.42800
H836        H  0.37941446  0.57275900  0.74582009     0.13400
H837        H  0.36540646  0.70885670  0.79577870     0.09900
H838        H  0.27869944  0.67469867  0.77776318     0.10900
H839        H  0.30257894  0.75557310  0.67116709     0.16700
C840        C  0.32093512  0.85877784  0.61718657    -0.01500
C841        C  0.32178477  0.85050321  0.57902626     0.07100
C842        C  0.29266437  0.82858305  0.56253855    -0.07400
C843        C  0.26304949  0.81527906  0.58328257     0.04600
C844        C  0.26231551  0.82347573  0.62136831    -0.14700
C845        C  0.29134839  0.84541105  0.63789245    -0.08000
C846        C  0.35340908  0.86287387  0.55604199     0.05500
C847        C  0.37697905  0.83423789  0.54111427    -0.09100
C848        C  0.40695125  0.84402325  0.51929795     0.00500
C849        C  0.41416906  0.88381463  0.51117453     0.00400
C850        C  0.39039411  0.91233128  0.52673818    -0.12700
C851        C  0.36030754  0.90230540  0.54861219     0.00800
C852        C  0.42982160  0.81202773  0.50583536     0.40100
C853        C  0.33634759  0.93295855  0.56262070     0.36800
C854        C  0.35062485  0.87996932  0.63586788     0.36500
C855        C  0.23296548  0.79460816  0.56474067     0.37200
N856        N  0.44800832  0.78627767  0.49516775    -0.43500
N857        N  0.31707893  0.95750673  0.57383863    -0.44000
N858        N  0.20863966  0.77837786  0.54987034    -0.41400
N859        N  0.37437415  0.89700989  0.65088839    -0.42800
H860        H  0.29120692  0.85153227  0.66722225     0.13400
H861        H  0.29297492  0.82207246  0.53327939     0.09900
H862        H  0.37203363  0.80382094  0.54680154     0.10900
H863        H  0.39519092  0.94291985  0.52261088     0.16700
C864        C  0.13803440  0.40285227  0.61794264    -0.01500
C865        C  0.16563240  0.37383778  0.61618242     0.07100
C866        C  0.18475368  0.36685615  0.58345873    -0.07400
C867        C  0.17704782  0.38877802  0.55274893     0.04600
C868        C  0.14968030  0.41825642  0.55458227    -0.14700
C869        C  0.13036015  0.42483992  0.58732340    -0.08000
C870        C  0.17582713  0.35120030  0.64847997     0.05500
C871        C  0.16182920  0.31331595  0.65124955    -0.09100
C872        C  0.17276242  0.29013985  0.68018975     0.00500
C873        C  0.19854052  0.30489967  0.70682212     0.00400
C874        C  0.21179257  0.34320229  0.70433157    -0.12700
C875        C  0.20044584  0.36645047  0.67565753     0.00800
C876        C  0.15863099  0.25073280  0.68057420     0.40100
C877        C  0.21504876  0.40556285  0.67413677     0.36800
C878        C  0.11718658  0.41036625  0.65084209     0.36500
C879        C  0.19864943  0.38163441  0.52026292     0.37200
N880        N  0.14704171  0.21924401  0.68081285    -0.43500
N881        N  0.22662103  0.43697946  0.67296162    -0.44000
N882        N  0.21598374  0.37583127  0.49423051    -0.41400
N883        N  0.10042371  0.41633005  0.67720633    -0.42800
H884        H  0.10899322  0.44703537  0.58882532     0.13400
H885        H  0.20617385  0.34466278  0.58215272     0.09900
H886        H  0.14286252  0.30159265  0.63032127     0.10900
H887        H  0.23158306  0.35476932  0.72456208     0.16700
C888        C  0.14556623  0.63148572  0.32017334    -0.01500
C889        C  0.17193451  0.61611170  0.29550265     0.07100
C890        C  0.18603232  0.57856863  0.29995748    -0.07400
C891        C  0.17421761  0.55609602  0.32866731     0.04600
C892        C  0.14746053  0.57121158  0.35344086    -0.14700
C893        C  0.13354143  0.60903471  0.34883688    -0.08000
C894        C  0.18636745  0.63964057  0.26589407     0.05500
C895        C  0.21738777  0.66322199  0.27317273    -0.09100
C896        C  0.23009533  0.68881461  0.24726505     0.00500
C897        C  0.21127519  0.69119942  0.21320826     0.00400
C898        C  0.18138549  0.66564003  0.20538135    -0.12700
C899        C  0.16882124  0.64010502  0.23138976     0.00800
C900        C  0.26137665  0.71300372  0.25775700     0.40100
C901        C  0.13729334  0.61544061  0.22254299     0.36800
C902        C  0.13078992  0.67034621  0.31665208     0.36500
C903        C  0.19134448  0.51845391  0.33283000     0.37200
N904        N  0.28688634  0.73111480  0.26763424    -0.43500
N905        N  0.11203184  0.59564374  0.21546347    -0.44000
N906        N  0.20512572  0.48822793  0.33582159    -0.41400
N907        N  0.11906447  0.70152318  0.31372749    -0.42800
H908        H  0.11302798  0.62093037  0.36754309     0.13400
H909        H  0.20675989  0.56706638  0.28123556     0.09900
H910        H  0.23106942  0.66240971  0.29972270     0.10900
H911        H  0.16710914  0.66638051  0.17915024     0.16700
C912        C  0.09000129  0.61174081  0.55142272    -0.01500
C913        C  0.12529567  0.62939752  0.55215677     0.07100
C914        C  0.15272594  0.61346398  0.52949651    -0.07400
C915        C  0.14589307  0.58077152  0.50640600     0.04600
C916        C  0.10982274  0.56404127  0.50348386    -0.14700
C917        C  0.08266555  0.57935495  0.52739839    -0.08000
C918        C  0.13655099  0.66176258  0.57852684     0.05500
C919        C  0.16620570  0.65489285  0.60251921    -0.09100
C920        C  0.18247959  0.68518525  0.62394982     0.00500
C921        C  0.16895393  0.72381229  0.62193001     0.00400
C922        C  0.13820362  0.73044419  0.59885283    -0.12700
C923        C  0.12210605  0.69993973  0.57714759     0.00800
C924        C  0.21242597  0.67478569  0.64807172     0.40100
C925        C  0.09180023  0.70882205  0.55277516     0.36800
C926        C  0.06153818  0.62478991  0.57638073     0.36500
C927        C  0.17748650  0.56392403  0.48772990     0.37200
N928        N  0.23639000  0.66470371  0.66671645    -0.43500
N929        N  0.06734298  0.71591098  0.53340467    -0.44000
N930        N  0.20295404  0.55055973  0.47301268    -0.41400
N931        N  0.03850940  0.63507595  0.59622982    -0.42800
H932        H  0.05645464  0.56490542  0.52952776     0.13400
H933        H  0.18032979  0.62598911  0.53081472     0.09900
H934        H  0.17730409  0.62552598  0.60387504     0.10900
H935        H  0.12720538  0.75978053  0.59712910     0.16700
C936        C  0.11825891  0.16871878  0.13257890    -0.01500
C937        C  0.13675486  0.14935256  0.10340427     0.07100
C938        C  0.17552248  0.15213928  0.10241651    -0.07400
C939        C  0.19561993  0.17398723  0.12951362     0.04600
C940        C  0.17703859  0.19478592  0.15835648    -0.14700
C941        C  0.13811357  0.19085511  0.15936051    -0.08000
C942        C  0.11581822  0.12530019  0.07467928     0.05500
C943        C  0.08756498  0.14279311  0.05411941    -0.09100
C944        C  0.06444453  0.12046895  0.03002052     0.00500
C945        C  0.06944853  0.07958269  0.02574912     0.00400
C946        C  0.09904137  0.06253680  0.04489956    -0.12700
C947        C  0.12191616  0.08477119  0.06915356     0.00800
C948        C  0.03614211  0.14041531  0.00980067     0.40100
C949        C  0.15026424  0.06484302  0.08940219     0.36800
C950        C  0.07870031  0.16525709  0.13651930     0.36500
C951        C  0.23547642  0.17435140  0.12698056     0.37200
N952        N  0.01352546  0.15649006  0.99353602    -0.43500
N953        N  0.17304129  0.04886055  0.10554307    -0.44000
N954        N  0.26741216  0.17473914  0.12505221    -0.41400
N955        N  0.04701838  0.16257937  0.13976611    -0.42800
H956        H  0.12224700  0.20401318  0.18124315     0.13400
H957        H  0.19022121  0.13709525  0.08035657     0.09900
H958        H  0.08306451  0.17403596  0.05750673     0.10900
H959        H  0.10358038  0.03126031  0.04204713     0.16700
C960        C  0.31951839  0.31941848  0.13904337    -0.01500
C961        C  0.32580883  0.35544149  0.15808457     0.07100
C962        C  0.30547488  0.36463948  0.18963430    -0.07400
C963        C  0.27886318  0.33864152  0.20223408     0.04600
C964        C  0.27281668  0.30205137  0.18351025    -0.14700
C965        C  0.29373259  0.29296919  0.15206249    -0.08000
C966        C  0.35163288  0.38485274  0.14386939     0.05500
C967        C  0.33863644  0.40975199  0.11719574    -0.09100
C968        C  0.36220841  0.43663401  0.10141191     0.00500
C969        C  0.40005446  0.43884452  0.11216790     0.00400
C970        C  0.41279853  0.41402169  0.13938773    -0.12700
C971        C  0.38895683  0.38738926  0.15533997     0.00800
C972        C  0.34651497  0.46030252  0.07349039     0.40100
C973        C  0.40335011  0.36281580  0.18329055     0.36800
C974        C  0.33855245  0.30947580  0.10548164     0.36500
C975        C  0.25675121  0.35168382  0.23291630     0.37200
N976        N  0.33268350  0.47901877  0.05153290    -0.43500
N977        N  0.41485948  0.34321914  0.20580941    -0.44000
N978        N  0.23926521  0.36273527  0.25750934    -0.41400
N979        N  0.35358463  0.30174283  0.07840905    -0.42800
H980        H  0.28982035  0.26510626  0.13733621     0.13400
H981        H  0.30966005  0.39277277  0.20383696     0.09900
H982        H  0.30990717  0.40775111  0.10830098     0.10900
H983        H  0.44147712  0.41561524  0.14838440     0.16700
C984        C  0.34003752  0.19632776  0.27698682    -0.01500
C985        C  0.33101017  0.17499528  0.30792957     0.07100
C986        C  0.29362533  0.16651998  0.31415752    -0.07400
C987        C  0.26552452  0.17951958  0.29064336     0.04600
C988        C  0.27459246  0.20172571  0.26040832    -0.14700
C989        C  0.31189828  0.20980233  0.25386191    -0.08000
C990        C  0.35976804  0.16443589  0.33566772     0.05500
C991        C  0.37907724  0.19459037  0.35446417    -0.09100
C992        C  0.40606843  0.18679566  0.38098212     0.00500
C993        C  0.41468811  0.14755215  0.38984829     0.00400
C994        C  0.39532974  0.11736744  0.37045054    -0.12700
C995        C  0.36788326  0.12547761  0.34403866     0.00800
C996        C  0.42465392  0.22026148  0.39827158     0.40100
C997        C  0.34908670  0.09326556  0.32508446     0.36800
C998        C  0.37802938  0.20420566  0.26805277     0.36500
C999        C  0.22750492  0.17120328  0.29897314     0.37200
N1000       N  0.43932697  0.24714006  0.41215718    -0.43500
N1001       N  0.33386960  0.06749398  0.30993582    -0.44000
N1002       N  0.19702744  0.16456437  0.30574770    -0.41400
N1003       N  0.40845140  0.21036114  0.26067420    -0.42800
H1004       H  0.31904898  0.22668784  0.23053431     0.13400
H1005       H  0.28630865  0.15062858  0.33803485     0.09900
H1006       H  0.37289610  0.22465835  0.34838908     0.10900
H1007       H  0.40204557  0.08740316  0.37460573     0.16700
C1008       C  0.16777268  0.30505437  0.33449190    -0.01500
C1009       C  0.14392375  0.33626432  0.32611645     0.07100
C1010       C  0.13712179  0.34416949  0.28931955    -0.07400
C1011       C  0.15414053  0.32206496  0.26112100     0.04600
C1012       C  0.17860202  0.29142491  0.26956003    -0.14700
C1013       C  0.18502074  0.28311231  0.30628971    -0.08000
C1014       C  0.13149014  0.36516195  0.35494357     0.05500
C1015       C  0.15860240  0.38850506  0.37222062    -0.09100
C1016       C  0.14935342  0.41872749  0.39708368     0.00500
C1017       C  0.11154678  0.42657571  0.40594595     0.00400
C1018       C  0.08438059  0.40211835  0.38914282    -0.12700
C1019       C  0.09401101  0.37192483  0.36356755     0.00800
C1020       C  0.17988683  0.44183644  0.41218031     0.40100
C1021       C  0.06510250  0.34814323  0.34657695     0.36800
C1022       C  0.17485609  0.29503565  0.37187681     0.36500
C1023       C  0.14777451  0.33280797  0.22381713     0.37200
N1024       N  0.20439459  0.46029575  0.42407044    -0.43500
N1025       N  0.04190167  0.32906076  0.33296833    -0.44000
N1026       N  0.14283578  0.34150298  0.19391784    -0.41400
N1027       N  0.18042496  0.28685587  0.40182533    -0.42800
H1028       H  0.20330801  0.25923366  0.31291835     0.13400
H1029       H  0.11970516  0.36874842  0.28267821     0.09900
H1030       H  0.18744177  0.38372645  0.36535031     0.10900
H1031       H  0.05555599  0.40649982  0.39518140     0.16700
loop_ 
_geom_bond_atom_site_label_1 
_geom_bond_atom_site_label_2 
_geom_bond_distance 
_geom_bond_site_symmetry_2 
_ccdc_geom_bond_type 
C1            C2   1.543       .  S
C1            C7   1.548       .  S
C1            C5   1.545       .  S
C1          C940   1.554       .  S
C2            H9   1.086       .  S
C2            C3   1.372       .  D
C3            C4   1.544       .  S
C3          C964   1.501       .  S
C4            C8   1.540       .  S
C4            C6   1.536       .  S
C4           H10   1.109       .  S
C5           H11   1.086       .  S
C5            C6   1.367       .  D
C6          C988   1.488       .  S
C7           H12   1.080       .  S
C7            C8   1.362       .  D
C8         C1012   1.486       .  S
C13          C15   1.530       .  S
C13          C17   1.532       .  S
C13          C16   1.564       .  S
C13        C1017   1.545       .  S
C14          C18   1.537       .  S
C14          C20   1.533       .  S
C14          C19   1.559       .  S
C14         C916   1.541       .  S
C15          C23   1.374       .  A
C15          C18   1.381       .  A
C16          C27   1.388       .  A
C16          C19   1.421       .  A
C17          C31   1.379       .  A
C17          C20   1.386       .  A
C18          C21   1.382       .  A
C19          C25   1.384       .  A
C20          C28   1.380       .  A
C21          N22   1.360       .  A
C21          H34   1.082       .  S
N22          C23   1.356       .  A
N22         C892   1.443       .  S
C23          H24   1.082       .  S
C25          N26   1.354       .  A
C25          H35   1.078       .  S
N26          C27   1.360       .  A
N26         N108   1.415   1_455  S
C27          H33   1.079       .  S
C28          N29   1.357       .  A
C28          H30   1.082       .  S
N29          C31   1.355       .  A
N29         C868   1.441       .  S
C31          H32   1.083       .  S
C36          C37   1.538       .  S
C36          C42   1.538       .  S
C36          C40   1.552       .  S
C36         C796   1.544       .  S
C37          H44   1.086       .  S
C37          C38   1.365       .  D
C38          C39   1.540       .  S
C38         C825   1.489       .  S
C39          C43   1.546       .  S
C39          C41   1.542       .  S
C39          H45   1.110       .  S
C40          H46   1.081       .  S
C40          C41   1.369       .  D
C41         C844   1.494       .  S
C42          H47   1.086       .  S
C42          C43   1.364       .  D
C43         C921   1.497       .  S
C48          C50   1.540       .  S
C48          C52   1.537       .  S
C48          C51   1.569       .  S
C48         C993   1.549       .  S
C49          C53   1.537       .  S
C49          C55   1.527       .  S
C49          C54   1.548       .  S
C49         C724   1.542       .  S
C50          C58   1.382       .  A
C50          C53   1.401       .  A
C51          C62   1.399       .  A
C51          C54   1.412       .  A
C52          C66   1.381       .  A
C52          C55   1.384       .  A
C53          C56   1.379       .  A
C54          C60   1.377       .  A
C55          C63   1.379       .  A
C56          N57   1.351       .  A
C56          H69   1.083       .  S
N57          C58   1.353       .  A
N57         C753   1.435       .  S
C58          H59   1.083       .  S
C60          N61   1.349       .  A
C60          H70   1.080       .  S
N61          C62   1.361       .  A
N61         N155   1.410   1_545  S
C62          H68   1.077       .  S
C63          N64   1.360       .  A
C63          H65   1.083       .  S
N64          C66   1.358       .  A
N64         C777   1.441       .  S
C66          H67   1.082       .  S
C71          C72   1.534       .  S
C71          C77   1.551       .  S
C71          C75   1.543       .  S
C71         C652   1.544       .  S
C72          H79   1.087       .  S
C72          C73   1.362       .  D
C73          C74   1.544       .  S
C73         C700   1.490       .  S
C74          C78   1.542       .  S
C74          C76   1.540       .  S
C74          H80   1.110       .  S
C75          H81   1.086       .  S
C75          C76   1.367       .  D
C76         C772   1.495       .  S
C77          H82   1.083       .  S
C77          C78   1.371       .  D
C78         C676   1.492       .  S
C83          C84   1.543       .  S
C83          C89   1.537       .  S
C83          C87   1.552       .  S
C83         C609   1.535       .  S
C84          H91   1.086       .  S
C84          C85   1.365       .  D
C85          C86   1.534       .  S
C85         C873   1.487       .  S
C86          C90   1.537       .  S
C86          C88   1.530       .  S
C86          H92   1.111       .  S
C87          H93   1.080       .  S
C87          C88   1.364       .  D
C88         C748   1.478       .  S
C89          H94   1.086       .  S
C89          C90   1.363       .  D
C90         C628   1.486       .  S
C95          C97   1.537       .  S
C95          C99   1.542       .  S
C95          C98   1.552       .  S
C95         C532   1.550       .  S
C96         C100   1.539       .  S
C96         C102   1.533       .  S
C96         C101   1.561       .  S
C96         C705   1.547       .  S
C97         C105   1.386       .  A
C97         C100   1.390       .  A
C98         C109   1.381       .  A
C98         C101   1.414       .  A
C99         C113   1.381       .  A
C99         C102   1.392       .  A
C100        C103   1.379       .  A
C101        C107   1.385       .  A
C102        C110   1.382       .  A
C103        N104   1.355       .  A
C103        H116   1.082       .  S
N104        C105   1.355       .  A
N104        C580   1.442       .  S
C105        H106   1.082       .  S
C107        N108   1.358       .  A
C107        H117   1.077       .  S
N108        C109   1.359       .  A
C109        H115   1.082       .  S
C110        N111   1.356       .  A
C110        H112   1.082       .  S
N111        C113   1.353       .  A
N111        C556   1.441       .  S
C113        H114   1.082       .  S
C118        C119   1.540       .  S
C118        C124   1.554       .  S
C118        C122   1.547       .  S
C118        C460   1.550       .  S
C119        H126   1.087       .  S
C119        C120   1.362       .  D
C120        C121   1.529       .  S
C120        C489   1.483       .  S
C121        C125   1.530       .  S
C121        C123   1.541       .  S
C121        H127   1.109       .  S
C122        H128   1.085       .  S
C122        C123   1.374       .  D
C123        C508   1.500       .  S
C124        H129   1.079       .  S
C124        C125   1.365       .  D
C125        C585   1.484       .  S
C130        C131   1.547       .  S
C130        C136   1.545       .  S
C130        C134   1.547       .  S
C130        C412   1.546       .  S
C131        H138   1.079       .  S
C131        C132   1.364       .  D
C132        C133   1.534       .  S
C132        C436   1.490       .  S
C133        C137   1.527       .  S
C133        C135   1.537       .  S
C133        H139   1.110       .  S
C134        H140   1.085       .  S
C134        C135   1.372       .  D
C135        C729   1.484       .  S
C136        H141   1.086       .  S
C136        C137   1.362       .  D
C137        C561   1.486       .  S
C142        C144   1.541       .  S
C142        C146   1.544       .  S
C142        C145   1.567       .  S
C142        C849   1.555       .  S
C143        C147   1.545       .  S
C143        C149   1.546       .  S
C143        C148   1.537       .  S
C143        C513   1.550       .  S
C144        C152   1.377       .  A
C144        C147   1.394       .  A
C145        C156   1.400       .  A
C145        C148   1.408       .  A
C146        C160   1.386       .  A
C146        C149   1.394       .  A
C147        C150   1.384       .  A
C148        C154   1.372       .  A
C149        C157   1.384       .  A
C150        N151   1.360       .  A
C150        H163   1.081       .  S
N151        C152   1.358       .  A
N151        C393   1.447       .  S
C152        H153   1.082       .  S
C154        N155   1.350       .  A
C154        H164   1.082       .  S
N155        C156   1.361       .  A
C156        H162   1.081       .  S
C157        N158   1.354       .  A
C157        H159   1.081       .  S
N158        C160   1.357       .  A
N158        C364   1.442       .  S
C160        H161   1.082       .  S
C165        C166   1.547       .  S
C165        C171   1.546       .  S
C165        C169   1.541       .  S
C165        C316   1.549       .  S
C166        H173   1.081       .  S
C166        C167   1.365       .  D
C167        C168   1.536       .  S
C167        C897   1.493       .  S
C168        C172   1.539       .  S
C168        C170   1.540       .  S
C168        H174   1.110       .  S
C169        H175   1.086       .  S
C169        C170   1.365       .  D
C170        C388   1.485       .  S
C171        H176   1.086       .  S
C171        C172   1.370       .  D
C172        C345   1.495       .  S
C177        C178   1.543       .  S
C177        C183   1.540       .  S
C177        C181   1.540       .  S
C177        C268   1.546       .  S
C178        H185   1.080       .  S
C178        C179   1.362       .  D
C179        C180   1.544       .  S
C179        C537   1.492       .  S
C180        C184   1.544       .  S
C180        C182   1.541       .  S
C180        H186   1.110       .  S
C181        H187   1.085       .  S
C181        C182   1.367       .  D
C182        C369   1.493       .  S
C183        H188   1.085       .  S
C183        C184   1.370       .  D
C184        C292   1.497       .  S
C189        C191   1.535       .  S
C189        C193   1.545       .  S
C189        C192   1.560       .  S
C189        C681   1.554       .  S
C190        C194   1.550       .  S
C190        C196   1.540       .  S
C190        C195   1.542       .  S
C190        C340   1.547       .  S
C191        C199   1.377       .  A
C191        C194   1.390       .  A
C192        C203   1.391   1_554  A
C192        C195   1.412       .  A
C193        C207   1.383       .  A
C193        C196   1.389       .  A
C194        C197   1.387       .  A
C195        C201   1.376   1_554  A
C196        C204   1.382       .  A
C197        N198   1.357       .  A
C197        H210   1.078       .  S
N198        C199   1.354       .  A
N198        C484   1.443       .  S
C199        H200   1.081       .  S
C201        N202   1.352       .  A
C201        H211   1.082       .  S
N202        C203   1.358       .  A
N202        N225   1.406       .  S
C203        H209   1.079       .  S
C204        N205   1.360       .  A
C204        H206   1.081       .  S
N205        C207   1.362       .  A
N205        C969   1.451       .  S
C207        H208   1.082       .  S
C212        C214   1.529       .  S
C212        C216   1.548       .  S
C212        C215   1.553       .  S
C212        C297   1.540       .  S
C213        C217   1.528       .  S
C213        C219   1.552       .  S
C213        C218   1.537       .  S
C213        C633   1.538       .  S
C214        C222   1.373       .  A
C214        C217   1.379       .  A
C215        C226   1.387       .  A
C215        C218   1.403       .  A
C216        C230   1.384       .  A
C216        C219   1.403       .  A
C217        C220   1.375       .  A
C218        C224   1.377       .  A
C219        C227   1.382       .  A
C220        N221   1.362       .  A
C220        H233   1.080       .  S
N221        C222   1.361       .  A
N221        C441   1.448       .  S
C222        H223   1.081       .  S
C224        N225   1.352       .  A
C224        H234   1.082       .  S
N225        C226   1.358       .  A
C226        H232   1.082       .  S
C227        N228   1.352       .  A
C227        H229   1.080       .  S
N228        C230   1.353       .  A
N228        C820   1.436       .  S
C230        H231   1.081       .  S
O235        C243   1.269   1_556  A
O235       Co255   1.987   1_456  S
O236        C244   1.259       .  A
O236       Co256   1.978       .  S
O237        C245   1.277       .  A
O237       Co257   2.019   1_545  S
O238        C246   1.301   1_556  A
O238       Co258   2.117   1_545  S
O239        C245   1.267       .  A
O239       Co256   1.962   1_455  S
O240        C246   1.274       .  A
O240       Co255   1.888       .  S
O241        C244   1.259       .  A
O241       Co258   2.000   1_545  S
O242        C243   1.274   1_556  A
O242       Co257   2.024   1_545  S
C243        C945   1.499       .  S
C244        C417   1.492       .  S
C245        C604   1.479       .  S
C246        C657   1.490       .  S
O247        C260   1.294       .  A
O247       Co255   2.110   1_565  S
O248        C261   1.268       .  A
O248       Co256   2.010   1_465  S
O249        C262   1.264   1_556  A
O249       Co257   1.968       .  S
O250        C263   1.276       .  A
O250       Co258   1.973       .  S
O251        C263   1.283       .  A
O251       Co256   2.030   1_565  S
O252        C262   1.275       .  A
O252       Co255   2.030   1_465  S
O253        C260   1.263   1_556  A
O253       Co258   1.900       .  S
O254        C261   1.264       .  A
O254       Co257   1.977       .  S
Co255       O259   2.008   1_554  S
Co256       O259   2.030       .  S
Co257       O259   2.028   1_465  S
Co258       O259   1.996   1_565  S
C260        C465   1.486       .  S
C261        C801   1.487       .  S
C262        C321   1.493       .  S
C263        C273   1.492       .  S
C264        C265   1.404       .  A
C264        C269   1.400       .  A
C264        C278   1.445       .  S
C265        C266   1.398       .  A
C265        C270   1.484       .  S
C266        C267   1.402       .  A
C266        H285   1.085       .  S
C267        C268   1.425       .  A
C267        C279   1.443       .  S
C268        C269   1.416       .  A
C269        H284   1.076       .  S
C270        C271   1.398       .  A
C270        C275   1.409       .  A
C271        C272   1.400       .  A
C271        H286   1.085       .  S
C272        C273   1.422       .  A
C272        C276   1.445       .  S
C273        C274   1.408       .  A
C274        C275   1.404       .  A
C274        H287   1.084       .  S
C275        C277   1.444       .  S
C276        N280   1.157       .  T
C277        N281   1.157       .  T
C278        N283   1.157       .  T
C279        N282   1.157       .  T
C288        C289   1.409       .  A
C288        C293   1.405       .  A
C288        C302   1.444       .  S
C289        C290   1.396       .  A
C289        C294   1.484       .  S
C290        C291   1.399       .  A
C290        H309   1.085       .  S
C291        C292   1.420       .  A
C291        C303   1.440       .  S
C292        C293   1.408       .  A
C293        H308   1.084       .  S
C294        C295   1.399       .  A
C294        C299   1.404       .  A
C295        C296   1.406       .  A
C295        H310   1.085       .  S
C296        C297   1.425       .  A
C296        C300   1.443       .  S
C297        C298   1.412       .  A
C298        C299   1.398       .  A
C298        H311   1.077       .  S
C299        C301   1.445       .  S
C300        N304   1.157       .  T
C301        N305   1.157       .  T
C302        N307   1.157       .  T
C303        N306   1.156       .  T
C312        C313   1.404       .  A
C312        C317   1.402       .  A
C312        C326   1.445       .  S
C313        C314   1.399       .  A
C313        C318   1.486       .  S
C314        C315   1.403       .  A
C314        H333   1.086       .  S
C315        C316   1.423       .  A
C315        C327   1.443       .  S
C316        C317   1.418       .  A
C317        H332   1.079       .  S
C318        C319   1.403       .  A
C318        C323   1.407       .  A
C319        C320   1.405       .  A
C319        H334   1.085       .  S
C320        C321   1.418       .  A
C320        C324   1.443       .  S
C321        C322   1.410       .  A
C322        C323   1.400       .  A
C322        H335   1.085       .  S
C323        C325   1.445       .  S
C324        N328   1.157   1_565  T
C325        N329   1.157       .  T
C326        N331   1.157       .  T
C327        N330   1.157       .  T
C336        C337   1.410       .  A
C336        C341   1.399       .  A
C336        C350   1.444       .  S
C337        C338   1.406       .  A
C337        C342   1.495       .  S
C338        C339   1.408       .  A
C338        H357   1.084       .  S
C339        C340   1.418       .  A
C339        C351   1.443       .  S
C340        C341   1.405       .  A
C341        H356   1.075       .  S
C342        C343   1.404       .  A
C342        C347   1.412       .  A
C343        C344   1.405       .  A
C343        H358   1.085       .  S
C344        C345   1.415       .  A
C344        C348   1.441       .  S
C345        C346   1.405       .  A
C346        C347   1.403       .  A
C346        H359   1.085       .  S
C347        C349   1.444       .  S
C348        N352   1.157       .  T
C349        N353   1.157       .  T
C350        N355   1.157       .  T
C351        N354   1.157   1_554  T
C360        C361   1.408       .  A
C360        C365   1.401       .  A
C360        C374   1.443       .  S
C361        C362   1.405       .  A
C361        C366   1.488       .  S
C362        C363   1.407       .  A
C362        H381   1.085       .  S
C363        C364   1.412       .  A
C363        C375   1.443       .  S
C364        C365   1.404       .  A
C365        H380   1.084       .  S
C366        C367   1.402       .  A
C366        C371   1.410       .  A
C367        C368   1.402       .  A
C367        H382   1.085       .  S
C368        C369   1.414       .  A
C368        C372   1.444       .  S
C369        C370   1.407       .  A
C370        C371   1.405       .  A
C370        H383   1.085       .  S
C371        C373   1.443       .  S
C372        N376   1.157       .  T
C373        N377   1.157       .  T
C374        N379   1.157       .  T
C375        N378   1.157       .  T
C384        C385   1.413       .  A
C384        C389   1.402       .  A
C384        C398   1.444       .  S
C385        C386   1.403       .  A
C385        C390   1.489       .  S
C386        C387   1.401       .  A
C386        H405   1.084       .  S
C387        C388   1.411       .  A
C387        C399   1.442       .  S
C388        C389   1.405       .  A
C389        H404   1.085       .  S
C390        C391   1.404       .  A
C390        C395   1.410       .  A
C391        C392   1.402       .  A
C391        H406   1.085       .  S
C392        C393   1.413       .  A
C392        C396   1.443       .  S
C393        C394   1.408       .  A
C394        C395   1.402       .  A
C394        H407   1.082       .  S
C395        C397   1.444       .  S
C396        N400   1.157       .  T
C397        N401   1.157       .  T
C398        N403   1.157       .  T
C399        N402   1.157       .  T
C408        C409   1.404       .  A
C408        C413   1.399       .  A
C408        C422   1.446       .  S
C409        C410   1.403       .  A
C409        C414   1.490       .  S
C410        C411   1.407       .  A
C410        H429   1.085       .  S
C411        C412   1.422       .  A
C411        C423   1.444       .  S
C412        C413   1.417       .  A
C413        H428   1.074       .  S
C414        C415   1.402       .  A
C414        C419   1.410       .  A
C415        C416   1.403       .  A
C415        H430   1.085       .  S
C416        C417   1.418       .  A
C416        C420   1.444       .  S
C417        C418   1.408       .  A
C418        C419   1.402       .  A
C418        H431   1.084       .  S
C419        C421   1.444       .  S
C420        N424   1.157       .  T
C421        N425   1.157       .  T
C422        N427   1.157       .  T
C423        N426   1.157       .  T
C432        C433   1.411       .  A
C432        C437   1.400       .  A
C432        C446   1.444       .  S
C433        C434   1.402       .  A
C433        C438   1.486       .  S
C434        C435   1.395       .  A
C434        H453   1.085       .  S
C435        C436   1.419       .  A
C435        C447   1.445       .  S
C436        C437   1.407       .  A
C437        H452   1.084       .  S
C438        C439   1.402       .  A
C438        C443   1.411       .  A
C439        C440   1.399       .  A
C439        H454   1.084       .  S
C440        C441   1.417       .  A
C440        C444   1.443       .  S
C441        C442   1.409       .  A
C442        C443   1.396       .  A
C442        H455   1.082       .  S
C443        C445   1.446       .  S
C444        N448   1.157       .  T
C445        N449   1.157       .  T
C446        N451   1.157       .  T
C447        N450   1.158       .  T
C456        C457   1.406       .  A
C456        C461   1.402       .  A
C456        C470   1.445       .  S
C457        C458   1.401       .  A
C457        C462   1.492       .  S
C458        C459   1.407       .  A
C458        H477   1.084       .  S
C459        C460   1.425       .  A
C459        C471   1.445       .  S
C460        C461   1.415       .  A
C461        H476   1.073       .  S
C462        C463   1.405       .  A
C462        C467   1.410       .  A
C463        C464   1.406       .  A
C463        H478   1.085       .  S
C464        C465   1.412       .  A
C464        C468   1.443       .  S
C465        C466   1.406       .  A
C466        C467   1.402       .  A
C466        H479   1.085       .  S
C467        C469   1.444       .  S
C468        N472   1.157   1_554  T
C469        N473   1.157       .  T
C470        N475   1.157       .  T
C471        N474   1.157       .  T
C480        C481   1.407       .  A
C480        C485   1.397       .  A
C480        C494   1.444       .  S
C481        C482   1.402       .  A
C481        C486   1.481       .  S
C482        C483   1.403       .  A
C482        H501   1.085       .  S
C483        C484   1.415       .  A
C483        C495   1.443       .  S
C484        C485   1.407       .  A
C485        H500   1.084       .  S
C486        C487   1.402       .  A
C486        C491   1.408       .  A
C487        C488   1.401       .  A
C487        H502   1.085       .  S
C488        C489   1.412       .  A
C488        C492   1.444       .  S
C489        C490   1.405       .  A
C490        C491   1.400       .  A
C490        H503   1.085       .  S
C491        C493   1.444       .  S
C492        N496   1.157       .  T
C493        N497   1.157       .  T
C494        N499   1.157       .  T
C495        N498   1.157       .  T
C504        C505   1.413       .  A
C504        C509   1.406       .  A
C504        C518   1.443       .  S
C505        C506   1.403       .  A
C505        C510   1.498       .  S
C506        C507   1.399       .  A
C506        H525   1.085       .  S
C507        C508   1.417       .  A
C507        C519   1.443       .  S
C508        C509   1.408       .  A
C509        H524   1.084       .  S
C510        C511   1.406       .  A
C510        C515   1.411       .  A
C511        C512   1.405       .  A
C511        H526   1.084       .  S
C512        C513   1.419       .  A
C512        C516   1.443       .  S
C513        C514   1.410       .  A
C514        C515   1.401       .  A
C514        H527   1.077       .  S
C515        C517   1.445       .  S
C516        N520   1.157       .  T
C517        N521   1.157       .  T
C518        N523   1.157       .  T
C519        N522   1.157       .  T
C528        C529   1.401       .  A
C528        C533   1.396       .  A
C528        C542   1.446       .  S
C529        C530   1.404       .  A
C529        C534   1.489       .  S
C530        C531   1.411       .  A
C530        H549   1.085       .  S
C531        C532   1.424       .  A
C531        C543   1.443       .  S
C532        C533   1.417       .  A
C533        H548   1.079       .  S
C534        C535   1.401       .  A
C534        C539   1.412       .  A
C535        C536   1.404       .  A
C535        H550   1.085       .  S
C536        C537   1.417       .  A
C536        C540   1.445       .  S
C537        C538   1.403       .  A
C538        C539   1.405       .  A
C538        H551   1.085       .  S
C539        C541   1.444       .  S
C540        N544   1.157       .  T
C541        N545   1.157       .  T
C542        N547   1.157       .  T
C543        N546   1.158       .  T
C552        C553   1.408       .  A
C552        C557   1.401       .  A
C552        C566   1.444       .  S
C553        C554   1.402       .  A
C553        C558   1.481       .  S
C554        C555   1.401       .  A
C554        H573   1.085       .  S
C555        C556   1.413       .  A
C555        C567   1.443       .  S
C556        C557   1.407       .  A
C557        H572   1.084       .  S
C558        C559   1.398       .  A
C558        C563   1.409       .  A
C559        C560   1.396       .  A
C559        H574   1.085       .  S
C560        C561   1.413       .  A
C560        C564   1.441       .  S
C561        C562   1.406       .  A
C562        C563   1.404       .  A
C562        H575   1.084       .  S
C563        C565   1.442       .  S
C564        N568   1.156       .  T
C565        N569   1.157       .  T
C566        N571   1.157       .  T
C567        N570   1.157       .  T
C576        C577   1.410       .  A
C576        C581   1.403       .  A
C576        C590   1.444       .  S
C577        C578   1.401       .  A
C577        C582   1.484       .  S
C578        C579   1.401       .  A
C578        H597   1.085       .  S
C579        C580   1.414       .  A
C579        C591   1.443       .  S
C580        C581   1.404       .  A
C581        H596   1.084       .  S
C582        C583   1.403       .  A
C582        C587   1.409       .  A
C583        C584   1.405       .  A
C583        H598   1.084       .  S
C584        C585   1.413       .  A
C584        C588   1.444       .  S
C585        C586   1.403       .  A
C586        C587   1.399       .  A
C586        H599   1.085       .  S
C587        C589   1.444       .  S
C588        N592   1.157       .  T
C589        N593   1.157       .  T
C590        N595   1.157       .  T
C591        N594   1.157       .  T
C600        C601   1.408       .  A
C600        C605   1.396       .  A
C600        C614   1.445       .  S
C601        C602   1.402       .  A
C601        C606   1.478       .  S
C602        C603   1.400       .  A
C602        H621   1.085       .  S
C603        C604   1.415       .  A
C603        C615   1.444       .  S
C604        C605   1.405       .  A
C605        H620   1.085       .  S
C606        C607   1.398       .  A
C606        C611   1.405       .  A
C607        C608   1.398       .  A
C607        H622   1.085       .  S
C608        C609   1.423       .  A
C608        C612   1.445       .  S
C609        C610   1.413       .  A
C610        C611   1.398       .  A
C610        H623   1.076       .  S
C611        C613   1.446       .  S
C612        N616   1.157       .  T
C613        N617   1.157       .  T
C614        N619   1.157       .  T
C615        N618   1.157       .  T
C624        C625   1.407       .  A
C624        C629   1.403       .  A
C624        C638   1.443       .  S
C625        C626   1.398       .  A
C625        C630   1.477       .  S
C626        C627   1.396       .  A
C626        H645   1.086       .  S
C627        C628   1.414       .  A
C627        C639   1.441       .  S
C628        C629   1.408       .  A
C629        H644   1.085       .  S
C630        C631   1.399       .  A
C630        C635   1.403       .  A
C631        C632   1.404       .  A
C631        H646   1.085       .  S
C632        C633   1.425       .  A
C632        C636   1.444       .  S
C633        C634   1.409       .  A
C634        C635   1.394       .  A
C634        H647   1.075       .  S
C635        C637   1.446       .  S
C636        N640   1.158       .  T
C637        N641   1.157       .  T
C638        N643   1.157       .  T
C639        N642   1.156       .  T
C648        C649   1.410       .  A
C648        C653   1.408       .  A
C648        C662   1.444       .  S
C649        C650   1.399       .  A
C649        C654   1.493       .  S
C650        C651   1.400       .  A
C650        H669   1.085       .  S
C651        C652   1.425       .  A
C651        C663   1.445       .  S
C652        C653   1.414       .  A
C653        H668   1.079       .  S
C654        C655   1.404       .  A
C654        C659   1.412       .  A
C655        C656   1.402       .  A
C655        H670   1.085       .  S
C656        C657   1.414       .  A
C656        C660   1.443       .  S
C657        C658   1.409       .  A
C658        C659   1.404       .  A
C658        H671   1.085       .  S
C659        C661   1.444       .  S
C660        N664   1.157       .  T
C661        N665   1.157       .  T
C662        N667   1.157       .  T
C663        N666   1.157       .  T
C672        C673   1.419       .  A
C672        C677   1.402       .  A
C672        C686   1.444       .  S
C673        C674   1.410       .  A
C673        C678   1.508       .  S
C674        C675   1.409       .  A
C674        H693   1.084       .  S
C675        C676   1.411       .  A
C675        C687   1.443       .  S
C676        C677   1.401       .  A
C677        H692   1.085       .  S
C678        C679   1.399       .  A
C678        C683   1.417       .  A
C679        C680   1.398       .  A
C679        H694   1.085       .  S
C680        C681   1.430       .  A
C680        C684   1.447       .  S
C681        C682   1.409       .  A
C682        C683   1.413       .  A
C682        H695   1.076       .  S
C683        C685   1.443       .  S
C684        N688   1.157       .  T
C685        N689   1.157       .  T
C686        N691   1.157       .  T
C687        N690   1.157       .  T
C696        C697   1.413       .  A
C696        C701   1.402       .  A
C696        C710   1.444       .  S
C697        C698   1.409       .  A
C697        C702   1.498       .  S
C698        C699   1.403       .  A
C698        H717   1.085       .  S
C699        C700   1.410       .  A
C699        C711   1.443       .  S
C700        C701   1.406       .  A
C701        H716   1.085       .  S
C702        C703   1.408       .  A
C702        C707   1.407       .  A
C703        C704   1.411       .  A
C703        H718   1.084       .  S
C704        C705   1.420       .  A
C704        C708   1.439       .  S
C705        C706   1.415       .  A
C706        C707   1.394       .  A
C706        H719   1.084       .  S
C707        C709   1.445       .  S
C708        N712   1.158       .  T
C709        N713   1.157       .  T
C710        N715   1.157       .  T
C711        N714   1.157       .  T
C720        C721   1.406       .  A
C720        C725   1.404       .  A
C720        C734   1.443       .  S
C721        C722   1.399       .  A
C721        C726   1.486       .  S
C722        C723   1.402       .  A
C722        H741   1.085       .  S
C723        C724   1.424       .  A
C723        C735   1.444       .  S
C724        C725   1.410       .  A
C725        H740   1.080       .  S
C726        C727   1.402       .  A
C726        C731   1.411       .  A
C727        C728   1.403       .  A
C727        H742   1.085       .  S
C728        C729   1.411       .  A
C728        C732   1.442       .  S
C729        C730   1.403       .  A
C730        C731   1.403       .  A
C730        H743   1.085       .  S
C731        C733   1.444       .  S
C732        N736   1.157       .  T
C733        N737   1.157       .  T
C734        N739   1.157       .  T
C735        N738   1.157       .  T
C744        C745   1.407       .  A
C744        C749   1.395       .  A
C744        C758   1.444       .  S
C745        C746   1.402       .  A
C745        C750   1.475       .  S
C746        C747   1.401       .  A
C746        H765   1.085       .  S
C747        C748   1.412       .  A
C747        C759   1.444       .  S
C748        C749   1.403       .  A
C749        H764   1.085       .  S
C750        C751   1.400       .  A
C750        C755   1.407       .  A
C751        C752   1.398       .  A
C751        H766   1.085       .  S
C752        C753   1.411       .  A
C752        C756   1.443       .  S
C753        C754   1.403       .  A
C754        C755   1.400       .  A
C754        H767   1.084       .  S
C755        C757   1.443       .  S
C756        N760   1.157       .  T
C757        N761   1.157       .  T
C758        N763   1.157       .  T
C759        N762   1.157       .  T
C768        C769   1.408       .  A
C768        C773   1.403       .  A
C768        C782   1.443       .  S
C769        C770   1.400       .  A
C769        C774   1.486       .  S
C770        C771   1.402       .  A
C770        H789   1.085       .  S
C771        C772   1.416       .  A
C771        C783   1.441       .  S
C772        C773   1.408       .  A
C773        H788   1.084       .  S
C774        C775   1.403       .  A
C774        C779   1.410       .  A
C775        C776   1.402       .  A
C775        H790   1.085       .  S
C776        C777   1.411       .  A
C776        C780   1.442       .  S
C777        C778   1.405       .  A
C778        C779   1.404       .  A
C778        H791   1.084       .  S
C779        C781   1.443       .  S
C780        N784   1.157       .  T
C781        N785   1.157       .  T
C782        N787   1.157       .  T
C783        N786   1.157       .  T
C792        C793   1.408       .  A
C792        C797   1.406       .  A
C792        C806   1.444       .  S
C793        C794   1.396       .  A
C793        C798   1.488       .  S
C794        C795   1.398       .  A
C794        H813   1.085       .  S
C795        C796   1.426       .  A
C795        C807   1.444       .  S
C796        C797   1.414       .  A
C797        H812   1.078       .  S
C798        C799   1.403       .  A
C798        C803   1.410       .  A
C799        C800   1.405       .  A
C799        H814   1.085       .  S
C800        C801   1.416       .  A
C800        C804   1.444       .  S
C801        C802   1.405       .  A
C802        C803   1.401       .  A
C802        H815   1.085       .  S
C803        C805   1.444       .  S
C804        N808   1.157   1_455  T
C805        N809   1.157       .  T
C806        N811   1.157       .  T
C807        N810   1.157       .  T
C816        C817   1.408       .  A
C816        C821   1.397       .  A
C816        C830   1.444       .  S
C817        C818   1.404       .  A
C817        C822   1.479       .  S
C818        C819   1.403       .  A
C818        H837   1.084       .  S
C819        C820   1.408       .  A
C819        C831   1.442       .  S
C820        C821   1.404       .  A
C821        H836   1.084       .  S
C822        C823   1.398       .  A
C822        C827   1.408       .  A
C823        C824   1.399       .  A
C823        H838   1.085       .  S
C824        C825   1.416       .  A
C824        C828   1.442       .  S
C825        C826   1.407       .  A
C826        C827   1.402       .  A
C826        H839   1.084       .  S
C827        C829   1.443       .  S
C828        N832   1.157       .  T
C829        N833   1.157       .  T
C830        N835   1.157       .  T
C831        N834   1.157       .  T
C840        C841   1.414       .  A
C840        C845   1.407       .  A
C840        C854   1.443       .  S
C841        C842   1.407       .  A
C841        C846   1.500       .  S
C842        C843   1.408       .  A
C842        H861   1.084       .  S
C843        C844   1.410       .  A
C843        C855   1.443       .  S
C844        C845   1.405       .  A
C845        H860   1.085       .  S
C846        C847   1.398       .  A
C846        C851   1.412       .  A
C847        C848   1.403       .  A
C847        H862   1.086       .  S
C848        C849   1.432       .  A
C848        C852   1.446       .  S
C849        C850   1.408       .  A
C850        C851   1.410       .  A
C850        H863   1.079       .  S
C851        C853   1.443       .  S
C852        N856   1.158       .  T
C853        N857   1.157       .  T
C854        N859   1.157       .  T
C855        N858   1.157       .  T
C864        C865   1.408       .  A
C864        C869   1.400       .  A
C864        C878   1.443       .  S
C865        C866   1.403       .  A
C865        C870   1.483       .  S
C866        C867   1.402       .  A
C866        H885   1.085       .  S
C867        C868   1.413       .  A
C867        C879   1.443       .  S
C868        C869   1.405       .  A
C869        H884   1.084       .  S
C870        C871   1.401       .  A
C870        C875   1.409       .  A
C871        C872   1.402       .  A
C871        H886   1.085       .  S
C872        C873   1.416       .  A
C872        C876   1.444       .  S
C873        C874   1.404       .  A
C874        C875   1.400       .  A
C874        H887   1.085       .  S
C875        C877   1.443       .  S
C876        N880   1.157       .  T
C877        N881   1.157       .  T
C878        N883   1.157       .  T
C879        N882   1.157       .  T
C888        C889   1.409       .  A
C888        C893   1.400       .  A
C888        C902   1.444       .  S
C889        C890   1.398       .  A
C889        C894   1.478       .  S
C890        C891   1.400       .  A
C890        H909   1.085       .  S
C891        C892   1.418       .  A
C891        C903   1.443       .  S
C892        C893   1.405       .  A
C893        H908   1.084       .  S
C894        C895   1.398       .  A
C894        C899   1.405       .  A
C895        C896   1.400       .  A
C895        H910   1.085       .  S
C896        C897   1.417       .  A
C896        C900   1.440       .  S
C897        C898   1.409       .  A
C898        C899   1.400       .  A
C898        H911   1.084       .  S
C899        C901   1.443       .  S
C900        N904   1.156       .  T
C901        N905   1.157       .  T
C902        N907   1.157       .  T
C903        N906   1.157       .  T
C912        C913   1.411       .  A
C912        C917   1.409       .  A
C912        C926   1.443       .  S
C913        C914   1.397       .  A
C913        C918   1.491       .  S
C914        C915   1.394       .  A
C914        H933   1.086       .  S
C915        C916   1.425       .  A
C915        C927   1.446       .  S
C916        C917   1.410       .  A
C917        H932   1.074       .  S
C918        C919   1.402       .  A
C918        C923   1.410       .  A
C919        C920   1.398       .  A
C919        H934   1.086       .  S
C920        C921   1.415       .  A
C920        C924   1.441       .  S
C921        C922   1.410       .  A
C922        C923   1.406       .  A
C922        H935   1.084       .  S
C923        C925   1.443       .  S
C924        N928   1.157       .  T
C925        N929   1.157       .  T
C926        N931   1.157       .  T
C927        N930   1.157       .  T
C936        C937   1.409       .  A
C936        C941   1.403       .  A
C936        C950   1.444       .  S
C937        C938   1.405       .  A
C937        C942   1.503       .  S
C938        C939   1.410       .  A
C938        H957   1.084       .  S
C939        C940   1.424       .  A
C939        C951   1.445       .  S
C940        C941   1.414       .  A
C941        H956   1.075       .  S
C942        C943   1.408       .  A
C942        C947   1.412       .  A
C943        C944   1.408       .  A
C943        H958   1.084       .  S
C944        C945   1.414       .  A
C944        C948   1.443       .  S
C945        C946   1.410       .  A
C946        C947   1.405       .  A
C946        H959   1.084       .  S
C947        C949   1.444       .  S
C948        N952   1.157   1_554  T
C949        N953   1.157       .  T
C950        N955   1.157       .  T
C951        N954   1.157       .  T
C960        C961   1.408       .  A
C960        C965   1.402       .  A
C960        C974   1.444       .  S
C961        C962   1.402       .  A
C961        C966   1.488       .  S
C962        C963   1.406       .  A
C962        H981   1.085       .  S
C963        C964   1.418       .  A
C963        C975   1.443       .  S
C964        C965   1.409       .  A
C965        H980   1.084       .  S
C966        C967   1.399       .  A
C966        C971   1.409       .  A
C967        C968   1.402       .  A
C967        H982   1.085       .  S
C968        C969   1.419       .  A
C968        C972   1.441       .  S
C969        C970   1.409       .  A
C970        C971   1.405       .  A
C970        H983   1.084       .  S
C971        C973   1.443       .  S
C972        N976   1.157       .  T
C973        N977   1.157       .  T
C974        N979   1.157       .  T
C975        N978   1.157       .  T
C984        C985   1.415       .  A
C984        C989   1.404       .  A
C984        C998   1.444       .  S
C985        C986   1.406       .  A
C985        C990   1.497       .  S
C986        C987   1.406       .  A
C986       H1005   1.084       .  S
C987        C988   1.411       .  A
C987        C999   1.443       .  S
C988        C989   1.402       .  A
C989       H1004   1.085       .  S
C990        C991   1.398       .  A
C990        C995   1.411       .  A
C991        C992   1.400       .  A
C991       H1006   1.085       .  S
C992        C993   1.429       .  A
C992        C996   1.446       .  S
C993        C994   1.409       .  A
C994        C995   1.411       .  A
C994       H1007   1.071       .  S
C995        C997   1.443       .  S
C996       N1000   1.158       .  T
C997       N1001   1.157       .  T
C998       N1003   1.157       .  T
C999       N1002   1.157       .  T
C1008      C1009   1.414       .  A
C1008      C1013   1.404       .  A
C1008      C1022   1.444       .  S
C1009      C1010   1.403       .  A
C1009      C1014   1.490       .  S
C1010      C1011   1.403       .  A
C1010      H1029   1.085       .  S
C1011      C1012   1.413       .  A
C1011      C1023   1.444       .  S
C1012      C1013   1.401       .  A
C1013      H1028   1.085       .  S
C1014      C1015   1.393       .  A
C1014      C1019   1.412       .  A
C1015      C1016   1.393       .  A
C1015      H1030   1.086       .  S
C1016      C1017   1.432       .  A
C1016      C1020   1.448       .  S
C1017      C1018   1.408       .  A
C1018      C1019   1.412       .  A
C1018      H1031   1.077       .  S
C1019      C1021   1.442       .  S
C1020      N1024   1.157       .  T
C1021      N1025   1.157       .  T
C1022      N1027   1.157       .  T
C1023      N1026   1.157       .  T
