geometry optimzed in LAMMPS
_audit_creation_date              2020-12-01 
_audit_creation_method            'lammps2cif' 
_symmetry_space_group_name_H-M    'P1' 
_symmetry_Int_Tables_number       1 
_symmetry_cell_setting            triclinic 
loop_ 
_symmetry_equiv_pos_as_xyz 
  x,y,z 
_cell_length_a                    55.50465165 
_cell_length_b                    55.51912684228881 
_cell_length_c                    39.18340723291887 
_cell_angle_alpha                 89.85700976807418 
_cell_angle_beta                  90.19621775255311 
_cell_angle_gamma                 120.11792693084485 
loop_ 
_atom_site_label 
_atom_site_type_symbol 
_atom_site_fract_x 
_atom_site_fract_y 
_atom_site_fract_z 
_atom_site_charge 
C1          C  0.48453510  0.71613747  0.10509683     0.80700
N2          N  0.49075451  0.71955014  0.13906901    -0.77600
C3          C  0.49493835  0.74303564  0.15538315     0.83100
N4          N  0.49325273  0.76309332  0.13748329    -0.77600
C5          C  0.48683631  0.75968161  0.10376764     0.83200
N6          N  0.48226383  0.73612518  0.08781234    -0.79300
C7          C  0.49985878  0.72700794  0.24608419     0.78300
N8          N  0.49792673  0.72504678  0.21152207    -0.77600
C9          C  0.49953523  0.74626142  0.19254897     0.83100
N10         N  0.50337812  0.76974044  0.20838410    -0.77600
C11         C  0.50532707  0.77190637  0.24297401     0.83200
N12         N  0.50320846  0.75030016  0.26172927    -0.79300
C13         C  0.23942874  0.78146400  0.24457418     0.80700
N14         N  0.23787650  0.78243837  0.20999106    -0.77600
C15         C  0.21592837  0.76192317  0.19276994     0.83100
N16         N  0.19523274  0.74059745  0.21035743    -0.77600
C17         C  0.19637408  0.73931167  0.24486691     0.83200
N18         N  0.21873110  0.75963623  0.26202102    -0.79300
C19         C  0.23747315  0.78093481  0.10284876     0.80700
N20         N  0.23668905  0.78214970  0.13740901    -0.77600
C21         C  0.21538770  0.76164716  0.15524740     0.83100
N22         N  0.19449615  0.73988790  0.13825829    -0.77600
C23         C  0.19491228  0.73835910  0.10367671     0.83200
N24         N  0.21666134  0.75883165  0.08594466    -0.79300
C25         C  0.20125232  0.47377069  0.10097422     0.80700
N26         N  0.20208725  0.47352500  0.13548258    -0.77600
C27         C  0.22395776  0.47454639  0.15220475     0.83100
N28         N  0.24522544  0.47540418  0.13408154    -0.77600
C29         C  0.24460400  0.47555020  0.09931101     0.83200
N30         N  0.22271524  0.47508753  0.08286159    -0.79300
C31         C  0.20517009  0.48156562  0.24046082     0.80700
N32         N  0.20391079  0.47735394  0.20627850    -0.77600
C33         C  0.22498860  0.47675927  0.18958034     0.83100
N34         N  0.24734993  0.47984556  0.20742402    -0.77600
C35         C  0.24887675  0.48404891  0.24173857     0.83200
N36         N  0.22790405  0.48524530  0.25814450    -0.79300
C37         C  0.76542854  0.25319272  0.24568034     0.80700
N38         N  0.76507802  0.25359549  0.21098655    -0.77600
C39         C  0.74208533  0.23481435  0.19350242     0.83100
N40         N  0.71954258  0.21527376  0.21098339    -0.77600
C41         C  0.71964907  0.21494491  0.24569018     0.83200
N42         N  0.74248777  0.23419872  0.26289673    -0.79300
C43         C  0.75692419  0.26303984  0.10515923     0.80700
N44         N  0.73491260  0.24248319  0.08813728    -0.77600
C45         C  0.71614298  0.21896001  0.10449417     0.83100
N46         N  0.71900314  0.21623118  0.13849563    -0.77600
C47         C  0.74064974  0.23688828  0.15608617     0.83200
N48         N  0.75977326  0.26019384  0.13924497    -0.79300
C49         C  0.72218111  0.51512979  0.10231207     0.80700
N50         N  0.72365318  0.51676736  0.13681726    -0.77600
C51         C  0.74623351  0.51952388  0.15367889     0.83100
N52         N  0.76788941  0.52120640  0.13575239    -0.77600
C53         C  0.76677281  0.51976629  0.10109759     0.83200
N54         N  0.74369030  0.51631602  0.08439058    -0.79300
C55         C  0.72188754  0.51389968  0.24229764     0.80700
N56         N  0.74108852  0.51039784  0.25968497    -0.77600
C57         C  0.76310200  0.51161321  0.24298893     0.83100
N58         N  0.76540004  0.51554576  0.20861891    -0.77600
C59         C  0.74586811  0.51842953  0.19106789     0.83200
N60         N  0.72434578  0.51783659  0.20807414    -0.79300
C61         C  0.48188405  0.21557197  0.24257412     0.80700
N62         N  0.48128054  0.23613527  0.26052183    -0.77600
C63         C  0.48026327  0.25712357  0.24392225     0.83100
N64         N  0.48035583  0.25779055  0.20928063    -0.77600
C65         C  0.48148334  0.23755536  0.19127501     0.83200
N66         N  0.48208932  0.21646594  0.20799984    -0.79300
C67         C  0.48907757  0.22082150  0.10245260     0.80700
N68         N  0.48533496  0.21889357  0.13670637    -0.77600
C69         C  0.48363129  0.23907716  0.15405816     0.83100
N70         N  0.48512739  0.26105554  0.13689663    -0.77600
C71         C  0.48890940  0.26307012  0.10255603     0.83200
N72         N  0.49117822  0.24308569  0.08549964    -0.79300
O73         O  0.50487407  0.55664269  0.49099820    -0.74800
O74         O  0.46852369  0.55328545  0.45970438    -0.53800
C75         C  0.48712262  0.56431362  0.48331803     0.78900
O76         O  0.55105797  0.50968356  0.35313538    -0.59400
O77         O  0.54507191  0.47196949  0.38355263    -0.52500
C78         C  0.55775556  0.49126615  0.36128645     0.70900
O79         O  0.50351399  0.55608354  0.35132062    -0.74000
O80         O  0.46845152  0.55370484  0.38410780    -0.54600
C81         C  0.48650611  0.56435177  0.35995987     0.76900
O82         O  0.55144515  0.50868561  0.48840002    -0.59100
O83         O  0.54682305  0.47269538  0.45555679    -0.52300
C84         C  0.55894048  0.49116535  0.47885212     0.73500
Zr85       Zr  0.51722561  0.52238011  0.47153825     2.54700
O86         O  0.56071106  0.56634290  0.46547151    -0.79700
O87         O  0.52076011  0.52395695  0.03275878    -0.93100
Zr88       Zr  0.51597421  0.52181236  0.37003092     2.64700
O89         O  0.55946491  0.56616810  0.37167690    -0.98100
O90         O  0.51572593  0.52038520  0.30787570    -0.80100
O91         O  0.50387675  0.53648382  0.42095103    -0.83500
O92         O  0.53021579  0.50898496  0.42062065    -2.18200
O93         O  0.45859842  0.41791974  0.49256172    -0.66900
O94         O  0.49368470  0.42084544  0.45940496    -0.51500
C95         C  0.47611048  0.41023575  0.48396119     0.71900
O96         O  0.40956845  0.46369582  0.35327645    -0.59800
O97         O  0.41477001  0.50096767  0.38391179    -0.51800
C98         C  0.40287092  0.48215744  0.36074907     0.73700
O99         O  0.45658611  0.41703145  0.35101649    -0.71200
O100        O  0.49269718  0.42049383  0.38280036    -0.49900
C101        C  0.47440983  0.40953658  0.35893145     0.75100
O102        O  0.41089955  0.46427995  0.49085818    -0.66500
O103        O  0.41433114  0.50017624  0.45856459    -0.53700
C104        C  0.40314367  0.48180616  0.48233898     0.73400
Zr105      Zr  0.44479757  0.45107682  0.47264979     2.77500
O106        O  0.40100164  0.40704612  0.46947004    -0.97300
O107        O  0.44280651  0.44918063  0.03442866    -0.78100
Zr108      Zr  0.44356326  0.45056437  0.37133414     2.70100
O109        O  0.40011680  0.40650253  0.37694748    -0.79300
O110        O  0.44127040  0.45016707  0.30924451    -0.98400
Zr111      Zr  0.45425897  0.51386782  0.42165746     2.21500
Zr112      Zr  0.50611146  0.45938939  0.42092872     2.11100
O113        O  0.45661926  0.43626602  0.42180215    -2.47100
O114        O  0.43043236  0.46421651  0.42215709    -0.79100
O115        O  0.49413531  0.47300734  0.47285462    -0.71300
O116        O  0.46669324  0.49989159  0.37024643    -2.32300
O117        O  0.46788538  0.50040773  0.47290131    -2.28500
O118        O  0.49282257  0.47247198  0.36957024    -0.73100
H119        H  0.55015196  0.51668460  0.42033015     0.78900
H120        H  0.46066237  0.50582946  0.35040985     0.80000
H121        H  0.44872265  0.41630342  0.42186726     0.82200
H122        H  0.46221251  0.50646217  0.49285328     0.79800
H123        H  0.52286997  0.53986923  0.30047148     0.42900
H124        H  0.45923477  0.45229184  0.30164287     0.41800
H125        H  0.39628321  0.39835818  0.35374899     0.41500
H126        H  0.40405894  0.39601761  0.45199682     0.39400
H127        H  0.46253225  0.45756639  0.04155627     0.42600
H128        H  0.50246740  0.52054828  0.04100909     0.37400
H129        H  0.57482385  0.56103660  0.45996221     0.43500
H130        H  0.56173331  0.57361588  0.34818806     0.39900
H131        H  0.40000690  0.39755561  0.49128859     0.44800
H132        H  0.53384089  0.54380093  0.03800331     0.43500
H133        H  0.55525524  0.57845054  0.38561674     0.43700
H134        H  0.42721753  0.43077660  0.30322678     0.44000
O135        O  0.03146752  0.56497503  0.35390818    -0.74800
O136        O  0.06307018  0.56172456  0.38809469    -0.53800
C137        C  0.05647209  0.57349297  0.36452524     0.78900
O138        O  0.93515072  0.52132013  0.48434504    -0.59400
O139        O  0.90341113  0.48370004  0.45376438    -0.52500
C140        C  0.91005024  0.50357533  0.47523451     0.70900
O141        O  0.02910629  0.56764082  0.48821826    -0.74000
O142        O  0.06170374  0.56249096  0.45890491    -0.54600
C143        C  0.05442552  0.57519178  0.48025788     0.76900
O144        O  0.93768593  0.51593640  0.34914176    -0.59100
O145        O  0.90450604  0.47993826  0.38055344    -0.52300
C146        C  0.91227144  0.49832991  0.35674767     0.73500
Zr147      Zr  0.98416487  0.52863866  0.36868915     2.54700
O148        O  0.98435425  0.57244450  0.36413050    -0.79700
O149        O  0.98341654  0.52293263  0.30698731    -0.93100
Zr150      Zr  0.98239204  0.53164790  0.47080481     2.64700
O151        O  0.98475898  0.57665194  0.46880811    -0.98100
O152        O  0.98178006  0.53089088  0.03318675    -0.80100
O153        O  0.00967386  0.54415809  0.42042153    -0.83500
O154        O  0.95670381  0.51759889  0.41885853    -2.18200
O155        O  0.93720325  0.42152983  0.35630613    -0.66900
O156        O  0.90486601  0.42672973  0.38631620    -0.51500
C157        C  0.91189858  0.41395064  0.36475295     0.71900
O158        O  0.02920726  0.46937380  0.48979209    -0.59800
O159        O  0.06174430  0.50658952  0.45930779    -0.51800
C160        C  0.05445400  0.48657291  0.48066901     0.73700
O161        O  0.93488891  0.42903961  0.49601555    -0.71200
O162        O  0.90281775  0.43046154  0.46073989    -0.49900
C163        C  0.90965402  0.42088626  0.48666608     0.75100
O164        O  0.03226500  0.47007390  0.35897380    -0.66500
O165        O  0.06352897  0.50821333  0.38923509    -0.53700
C166        C  0.05730861  0.48869192  0.36746494     0.73400
Zr167      Zr  0.98429755  0.45745464  0.37396265     2.77500
O168        O  0.98536362  0.41425628  0.37897892    -0.97300
O169        O  0.98718351  0.45699594  0.31202583    -0.78100
Zr170      Zr  0.98234430  0.46021350  0.47567622     2.70100
O171        O  0.97714675  0.41399735  0.47464405    -0.79300
O172        O  0.98437625  0.46494646  0.03819942    -0.98400
Zr173      Zr  0.03614459  0.52143975  0.42377562     2.21500
Zr174      Zr  0.93002395  0.46803102  0.42100933     2.11100
O175        O  0.95646516  0.44493279  0.42418689    -2.47100
O176        O  0.00995453  0.47198956  0.42566533    -0.79100
O177        O  0.95700108  0.47935835  0.37010471    -0.71300
O178        O  0.00949920  0.50956783  0.47502027    -2.32300
O179        O  0.01129529  0.50679272  0.37119561    -2.28500
O180        O  0.95527171  0.48239400  0.47338180    -0.73100
H181        H  0.94482683  0.52563984  0.41723493     0.78900
H182        H  0.02140650  0.51601006  0.49491798     0.80000
H183        H  0.94433043  0.42498475  0.42518370     0.82200
H184        H  0.02378534  0.51259095  0.35191932     0.79800
H185        H  0.99919322  0.53124515  0.03976137     0.42900
H186        H  0.98308195  0.44744256  0.04635531     0.41800
H187        H  0.97998138  0.41028307  0.49861285     0.41500
H188        H  0.00256743  0.41937899  0.39206795     0.39400
H189        H  0.98486851  0.43853143  0.30665109     0.42600
H190        H  0.98186443  0.50453129  0.30370999     0.37400
H191        H  0.98463844  0.57822860  0.38808244     0.43500
H192        H  0.96623297  0.57265064  0.46056224     0.39900
H193        H  0.97006574  0.40262738  0.39493081     0.44800
H194        H  0.00247708  0.53650329  0.29927215     0.43500
H195        H  0.98533248  0.58191292  0.49305401     0.43700
H196        H  0.00374270  0.47955348  0.04345832     0.44000
O197        O  0.51097866  0.94298657  0.35880222    -0.74800
O198        O  0.47389187  0.91073257  0.38964509    -0.53800
C199        C  0.49351470  0.91777123  0.36768151     0.78900
O200        O  0.55713299  0.03524647  0.49408789    -0.59400
O201        O  0.55348220  0.06804791  0.46295915    -0.52500
C202        C  0.56509900  0.06059082  0.48585351     0.70900
O203        O  0.50807393  0.94204608  0.49527554    -0.74000
O204        O  0.47055166  0.91024407  0.46452057    -0.54600
C205        C  0.48917141  0.91699821  0.48794474     0.76900
O206        O  0.55308866  0.03662025  0.35333434    -0.59100
O207        O  0.55069262  0.06907543  0.38649459    -0.52300
C208        C  0.56083062  0.06191641  0.36160178     0.73500
Zr209      Zr  0.52089257  0.98972373  0.37421146     2.54700
O210        O  0.56610369  0.99249350  0.37595660    -0.79700
O211        O  0.51949152  0.98757797  0.31207351    -0.93100
Zr212      Zr  0.52155351  0.98884268  0.47612639     2.64700
O213        O  0.56521480  0.98842257  0.47584464    -0.98100
O214        O  0.51976085  0.98919366  0.03765801    -0.80100
O215        O  0.50826564  0.96242943  0.42483830    -0.83500
O216        O  0.53582719  0.01606872  0.42541386    -2.18200
O217        O  0.46206303  0.03876889  0.36046444    -0.66900
O218        O  0.49837008  0.06986791  0.39347286    -0.51500
C219        C  0.47956435  0.06367367  0.37057961     0.71900
O220        O  0.41325875  0.94197391  0.49109267    -0.59800
O221        O  0.41750278  0.90976013  0.45959571    -0.51800
C222        C  0.40511682  0.91672180  0.48183382     0.73700
O223        O  0.46559477  0.03647265  0.49768787    -0.71200
O224        O  0.50201168  0.06884270  0.46607255    -0.49900
C225        C  0.48391540  0.06168013  0.48997626     0.75100
O226        O  0.41296626  0.94443093  0.35990653    -0.66500
O227        O  0.41793692  0.91148614  0.38906514    -0.53700
C228        C  0.40516764  0.91902719  0.36794557     0.73400
Zr229      Zr  0.44983315  0.99110976  0.37603517     2.77500
O230        O  0.40649312  0.99188084  0.38101767    -0.97300
O231        O  0.44940672  0.99330377  0.31402502    -0.78100
Zr232      Zr  0.45043750  0.98942774  0.47751205     2.70100
O233        O  0.40801058  0.99218963  0.47739020    -0.79300
O234        O  0.45342630  0.98559189  0.04036969    -0.98400
Zr235      Zr  0.45870728  0.93650379  0.42503248     2.21500
Zr236      Zr  0.51312553  0.04277929  0.42652573     2.11100
O237        O  0.46344575  0.01714640  0.42738711    -2.47100
O238        O  0.43626250  0.96345981  0.42619970    -0.79100
O239        O  0.49916488  0.01721976  0.37464058    -0.71300
O240        O  0.47218962  0.96218568  0.47704263    -2.32300
O241        O  0.47145494  0.96333442  0.37366327    -2.28500
O242        O  0.49984825  0.01617237  0.47780745    -0.73100
H243        H  0.55581934  0.02802092  0.42516574     0.78900
H244        H  0.46579598  0.94997226  0.49662599     0.80000
H245        H  0.45579167  0.02938228  0.42825250     0.82200
H246        H  0.46507252  0.95139336  0.35384052     0.79800
H247        H  0.51246825  0.00175773  0.04307537     0.42900
H248        H  0.46599376  0.00482917  0.04844726     0.41800
H249        H  0.40913406  0.00256184  0.49841901     0.41500
H250        H  0.39660964  0.98407464  0.35918781     0.39400
H251        H  0.46795787  0.99661416  0.30710853     0.42600
H252        H  0.51525483  0.00217300  0.30492616     0.37400
H253        H  0.57912190  0.01117887  0.38529532     0.43500
H254        H  0.56415704  0.97710475  0.49596323     0.39900
H255        H  0.39551908  0.97740151  0.39822679     0.44800
H256        H  0.50240284  0.96984239  0.30645306     0.43500
H257        H  0.56366788  0.97675646  0.45596173     0.43700
H258        H  0.43480364  0.98092968  0.04889613     0.44000
C259        C  0.49363074  0.31943179  0.04248464     0.16400
C260        C  0.49798541  0.33673611  0.51476667    -0.32600
C261        C  0.48687144  0.35488402  0.01740097     0.20800
C262        C  0.47079818  0.35381335  0.04502535     0.03000
C263        C  0.46623068  0.33581649  0.07244154    -0.22400
C264        C  0.47823325  0.31888098  0.07060546     0.12200
S265        S  0.50513942  0.29622091  0.04419858    -0.06000
C266        C  0.48951529  0.28606631  0.08353912    -0.09500
C267        C  0.47613482  0.29998711  0.09455931    -0.26100
S268        S  0.45818307  0.37614231  0.04229207    -0.03300
C269        C  0.47637838  0.38796118  0.50408719    -0.16800
C270        C  0.48950078  0.37368050  0.49325411    -0.14700
H271        H  0.50858391  0.33602975  0.49196406     0.20600
H272        H  0.45390406  0.33505916  0.09421711     0.16700
H273        H  0.46474608  0.29586105  0.11827561     0.19200
H274        H  0.49988824  0.37679170  0.46893370     0.12500
C275        C  0.47765605  0.11339797  0.04988391     0.16400
C276        C  0.47231997  0.12669916  0.07663509    -0.32600
C277        C  0.48206094  0.15523082  0.07310023     0.20800
C278        C  0.49627348  0.16985410  0.04416981     0.03000
C279        C  0.50193819  0.15663949  0.01766341    -0.22400
C280        C  0.49237056  0.12816546  0.02128349     0.12200
S281        S  0.46700473  0.07877619  0.04877578    -0.06000
C282        C  0.48411921  0.08397663  0.51006842    -0.09500
C283        C  0.49740352  0.11143154  0.49931988    -0.26100
S284        S  0.50535333  0.20407180  0.04411594    -0.03300
C285        C  0.49024145  0.19868285  0.08373631    -0.16800
C286        C  0.47875553  0.17177487  0.09610464    -0.14700
H287        H  0.46092552  0.11529452  0.09907258     0.20600
H288        H  0.51514294  0.16778900  0.49705388     0.16700
H289        H  0.50854634  0.11898717  0.47546582     0.19200
H290        H  0.46810484  0.16460700  0.12031398     0.12500
C291        C  0.48693245  0.31471493  0.30303672     0.16400
C292        C  0.49343922  0.33403474  0.32933158    -0.32600
C293        C  0.48361237  0.35276533  0.32630950     0.20800
C294        C  0.46787741  0.35224134  0.29844726     0.03000
C295        C  0.46188127  0.33329846  0.27173956    -0.22400
C296        C  0.47186946  0.31466401  0.27467603     0.12200
S297        S  0.49616142  0.28971072  0.30258879    -0.06000
C298        C  0.48020645  0.27955342  0.26338719    -0.09500
C299        C  0.46820858  0.29466115  0.25154501    -0.26100
S300        S  0.45684580  0.37589874  0.30045398    -0.03300
C301        C  0.47395898  0.38686192  0.33902952    -0.16800
C302        C  0.48743259  0.37277703  0.34948819    -0.14700
H303        H  0.50539547  0.33427080  0.35135829     0.20600
H304        H  0.44977479  0.33293824  0.24981227     0.16700
H305        H  0.45721757  0.29102056  0.22750765     0.19200
H306        H  0.49908083  0.37670438  0.37305055     0.12500
C307        C  0.47768413  0.14873137  0.27566062     0.16400
C308        C  0.47421101  0.12211041  0.27916034    -0.32600
C309        C  0.47613304  0.11330245  0.31200972     0.20800
C310        C  0.48164659  0.13037965  0.34021003     0.03000
C311        C  0.48479343  0.15698657  0.33677852    -0.22400
C312        C  0.48258816  0.16569104  0.30382532     0.12200
S313        S  0.47612268  0.16295802  0.23781047    -0.06000
C314        C  0.48162590  0.19199563  0.26002452    -0.09500
C315        C  0.48479183  0.19064982  0.29500526    -0.26100
S316        S  0.48484312  0.11628322  0.37754931    -0.03300
C317        C  0.47829013  0.08702500  0.35483023    -0.16800
C318        C  0.47376457  0.08824002  0.32031437    -0.14700
H319        H  0.47028431  0.10885576  0.25716394     0.20600
H320        H  0.48895850  0.17034456  0.35872690     0.16700
H321        H  0.48837914  0.20693742  0.31294539     0.19200
H322        H  0.47002343  0.07208036  0.30208985     0.12500
C323        C  0.62118571  0.48830307  0.32805511     0.16400
C324        C  0.64322094  0.48320357  0.32288267    -0.32600
C325        C  0.66232535  0.49825577  0.29697819     0.20800
C326        C  0.65933552  0.51718875  0.27683367     0.03000
C327        C  0.63754248  0.52251908  0.28229753    -0.22400
C328        C  0.61866179  0.50774800  0.30842041     0.12200
S329        S  0.59587421  0.47233085  0.35815767    -0.06000
C330        C  0.58206424  0.49248760  0.34458694    -0.09500
C331        C  0.59632632  0.51033258  0.31785073    -0.26100
S332        S  0.68360134  0.53218388  0.24546318    -0.03300
C333        C  0.69824731  0.51311609  0.25989677    -0.16800
C334        C  0.68499010  0.49613629  0.28768730    -0.14700
H335        H  0.64534507  0.46815811  0.33830843     0.20600
H336        H  0.63532715  0.53744808  0.26674338     0.16700
H337        H  0.59077729  0.52456543  0.30609086     0.19200
H338        H  0.69102923  0.48232888  0.29960663     0.12500
C339        C  0.81020721  0.49844508  0.30225801     0.16400
C340        C  0.82181149  0.49093115  0.32909972    -0.32600
C341        C  0.84917453  0.49643036  0.32519274     0.20800
C342        C  0.86444085  0.50914902  0.29602062     0.03000
C343        C  0.85276100  0.51646025  0.26903612    -0.22400
C344        C  0.82527837  0.51068224  0.27281445     0.12200
S345        S  0.77745321  0.49380265  0.30232519    -0.06000
C346        C  0.78396188  0.50815259  0.26206334    -0.09500
C347        C  0.81022935  0.51614134  0.24948357    -0.26100
S348        S  0.89765257  0.51504481  0.29677777    -0.03300
C349        C  0.89076752  0.49987770  0.33663288    -0.16800
C350        C  0.86410429  0.49079891  0.34851896    -0.14700
H351        H  0.81005514  0.48129797  0.35206267     0.20600
H352        H  0.86459650  0.52630412  0.24618835     0.16700
H353        H  0.81798205  0.52569132  0.22479646     0.19200
H354        H  0.85633108  0.48128100  0.37321734     0.12500
C355        C  0.62519310  0.49301225  0.00959451     0.16400
C356        C  0.65000937  0.49225035  0.01288424    -0.32600
C357        C  0.66470938  0.50152520  0.04378951     0.20800
C358        C  0.65475882  0.51054243  0.07037325     0.03000
C359        C  0.63023443  0.51164015  0.06691937    -0.22400
C360        C  0.61590947  0.50299017  0.03585312     0.12200
S361        S  0.60310595  0.48033174  0.47581806    -0.06000
C362        C  0.58342610  0.49247014  0.49536718    -0.09500
C363        C  0.59211623  0.50333223  0.02738993    -0.26100
S364        S  0.67473910  0.51988555  0.10626619    -0.03300
C365        C  0.69724323  0.51222353  0.08517853    -0.16800
C366        C  0.68939258  0.50275741  0.05200786    -0.14700
H367        H  0.65756083  0.48487708  0.99225787     0.20600
H368        H  0.62271190  0.51905885  0.08753252     0.16700
H369        H  0.58157835  0.51061943  0.04404632     0.19200
H370        H  0.70082736  0.49669004  0.03511891     0.12500
C371        C  0.84433789  0.50419593  0.00717404     0.16400
C372        C  0.81729063  0.49941636  0.01228685    -0.32600
C373        C  0.81271150  0.51178220  0.04082292     0.20800
C374        C  0.83415358  0.52833606  0.06313645     0.03000
C375        C  0.86135539  0.53380063  0.05743845    -0.22400
C376        C  0.86587535  0.52121277  0.02909675     0.12200
S377        S  0.85361667  0.48842690  0.47489772    -0.06000
C378        C  0.88721397  0.50620710  0.49049606    -0.09500
C379        C  0.89055807  0.52290080  0.02022672    -0.26100
S380        S  0.82391291  0.53934132  0.09789982    -0.03300
C381        C  0.79042321  0.52163220  0.08209230    -0.16800
C382        C  0.78758567  0.50824748  0.05128838    -0.14700
H383        H  0.79996342  0.48368013  0.49606458     0.20600
H384        H  0.87808596  0.54658244  0.07493704     0.16700
H385        H  0.90992640  0.53490432  0.03407384     0.19200
H386        H  0.76801361  0.49561194  0.03808476     0.12500
C387        C  0.62504821  0.11106915  0.04330228     0.16400
C388        C  0.64515040  0.12352300  0.06909709    -0.32600
C389        C  0.66103669  0.15268860  0.06960031     0.20800
C390        C  0.65734392  0.16872439  0.04522093     0.03000
C391        C  0.63726375  0.15627437  0.01944135    -0.22400
C392        C  0.62118503  0.12713302  0.01915419     0.12200
S393        S  0.60318092  0.07607257  0.03878492    -0.06000
C394        C  0.58920676  0.08259780  0.50426535    -0.09500
C395        C  0.60032065  0.11067686  0.49732675    -0.26100
S396        S  0.67902831  0.20372022  0.04976535    -0.03300
C397        C  0.69298280  0.19672217  0.08514944    -0.16800
C398        C  0.68136624  0.16869011  0.09281287    -0.14700
H399        H  0.64812319  0.11103913  0.08808816     0.20600
H400        H  0.63422132  0.16876350  0.00052445     0.16700
H401        H  0.59286382  0.11908961  0.47766019     0.19200
H402        H  0.68783074  0.16048015  0.11380097     0.12500
C403        C  0.80490269  0.32222654  0.04426729     0.16400
C404        C  0.81646363  0.34113079  0.51684849    -0.32600
C405        C  0.84503408  0.36168827  0.01999397     0.20800
C406        C  0.85949105  0.36558476  0.05032409     0.03000
C407        C  0.84682797  0.34814411  0.07848838    -0.22400
C408        C  0.81922960  0.32645466  0.07476698     0.12200
S409        S  0.77207296  0.29396681  0.04444683    -0.06000
C410        C  0.77764852  0.28777251  0.08612622    -0.09500
C411        C  0.80361706  0.30692407  0.09899517    -0.26100
S412        S  0.89307574  0.39246383  0.04946183    -0.03300
C413        C  0.88717226  0.39901133  0.50750122    -0.16800
C414        C  0.86015546  0.38181734  0.49581301    -0.14700
H415        H  0.80505676  0.33813863  0.49327627     0.20600
H416        H  0.85810971  0.35117036  0.10217060     0.16700
H417        H  0.81099291  0.30613681  0.12436635     0.19200
H418        H  0.85282496  0.38273517  0.47045532     0.12500
C419        C  0.65984706  0.16688726  0.30543351     0.16400
C420        C  0.64121962  0.15459392  0.33264144    -0.32600
C421        C  0.61974879  0.12689802  0.32876065     0.20800
C422        C  0.61709263  0.11202616  0.29923200     0.03000
C423        C  0.63538090  0.12448949  0.27177754    -0.22400
C424        C  0.65668352  0.15225354  0.27553211     0.12200
S425        S  0.68799068  0.19981528  0.30565281    -0.06000
C426        C  0.69521500  0.19400911  0.26473363    -0.09500
C427        C  0.67671203  0.16784796  0.25189333    -0.26100
S428        S  0.59077880  0.07816752  0.30034384    -0.03300
C429        C  0.58301545  0.08414281  0.34091306    -0.16800
C430        C  0.59997912  0.11111663  0.35259997    -0.14700
H431        H  0.64358320  0.16598859  0.35598341     0.20600
H432        H  0.63331225  0.11294024  0.24866570     0.16700
H433        H  0.67825641  0.16040771  0.22692809     0.19200
H434        H  0.59846388  0.11853144  0.37759509     0.12500
C435        C  0.83460599  0.31094237  0.28201558     0.16400
C436        C  0.86184224  0.33327379  0.28619753    -0.32600
C437        C  0.86709069  0.35117153  0.31396844     0.20800
C438        C  0.84624279  0.34666722  0.33689015     0.03000
C439        C  0.81930003  0.32375046  0.33346190    -0.22400
C440        C  0.81393844  0.30618439  0.30536417     0.12200
S441        S  0.82310898  0.28935177  0.24742730    -0.06000
C442        C  0.79010837  0.27398763  0.26445746    -0.09500
C443        C  0.78845219  0.28454512  0.29581532    -0.26100
S444        S  0.85619891  0.37163109  0.36753997    -0.03300
C445        C  0.88901049  0.38824661  0.34970855    -0.16800
C446        C  0.89180463  0.37491881  0.32135521    -0.14700
H447        H  0.87793146  0.33721848  0.26779891     0.20600
H448        H  0.80294267  0.32042652  0.35112728     0.16700
H449        H  0.76930705  0.27798894  0.30972205     0.19200
H450        H  0.91075728  0.38236523  0.30672326     0.12500
C451        C  0.34622733  0.47582642  0.29869557     0.16400
C452        C  0.32736688  0.46941112  0.27166409    -0.32600
C453        C  0.30869210  0.47941230  0.27354129     0.20800
C454        C  0.30870939  0.49503124  0.30111843     0.03000
C455        C  0.32803695  0.50201853  0.32773566    -0.22400
C456        C  0.34673593  0.49203266  0.32587593     0.12200
S457        S  0.36956452  0.46447784  0.30207257    -0.06000
C458        C  0.38036091  0.48194370  0.34041694    -0.09500
C459        C  0.36652392  0.49590514  0.34973078    -0.26100
S460        S  0.28323443  0.50371754  0.29960236    -0.03300
C461        C  0.27281465  0.48659921  0.26107627    -0.16800
C462        C  0.28835849  0.47481148  0.25025273    -0.14700
H463        H  0.32695280  0.45678819  0.25039293     0.20600
H464        H  0.32815141  0.51426188  0.34926920     0.16700
H465        H  0.37040733  0.50784714  0.37296302     0.19200
H466        H  0.28451988  0.46290250  0.22699503     0.12500
C467        C  0.12472072  0.49334111  0.33461571     0.16400
C468        C  0.15200027  0.49860789  0.32987712    -0.32600
C469        C  0.15788875  0.48927848  0.29947455     0.20800
C470        C  0.13757557  0.47562861  0.27473883     0.03000
C471        C  0.11020558  0.46996243  0.27972185    -0.22400
C472        C  0.10423898  0.47897921  0.31028739     0.12200
S473        S  0.11359307  0.50368457  0.36920863    -0.06000
C474        C  0.08080904  0.48794536  0.35109484    -0.09500
C475        C  0.07890471  0.47553396  0.31976825    -0.26100
S476        S  0.14908004  0.46698951  0.23905963    -0.03300
C477        C  0.18153133  0.48137022  0.25785896    -0.16800
C478        C  0.18313371  0.49238906  0.29008728    -0.14700
H479        H  0.16796638  0.50963509  0.34896171     0.20600
H480        H  0.09428940  0.45912401  0.26052183     0.16700
H481        H  0.06014191  0.46506790  0.30444290     0.19200
H482        H  0.20181266  0.50242028  0.30560628     0.12500
C483        C  0.34541587  0.47243823  0.04474678     0.16400
C484        C  0.32768503  0.46731248  0.07264545    -0.32600
C485        C  0.30554198  0.47243893  0.06831918     0.20800
C486        C  0.30087098  0.48157184  0.03735124     0.03000
C487        C  0.32248480  0.49399836  0.51067419    -0.22400
C488        C  0.34115120  0.48228870  0.01407362     0.12200
S489        S  0.37354620  0.46776712  0.04482088    -0.06000
C490        C  0.38009334  0.48089039  0.50200561    -0.09500
C491        C  0.36322424  0.49100359  0.49017349    -0.26100
S492        S  0.27279099  0.48631718  0.03707530    -0.03300
C493        C  0.26756007  0.47651178  0.07938197    -0.16800
C494        C  0.28658103  0.46967009  0.09265981    -0.14700
H495        H  0.33118032  0.45995880  0.09675201     0.20600
H496        H  0.32005537  0.50308792  0.48735821     0.16700
H497        H  0.36492693  0.50015219  0.46521812     0.19200
H498        H  0.28648094  0.46294787  0.11865706     0.12500
C499        C  0.13422310  0.47079595  0.07033275     0.16400
C500        C  0.10820195  0.46901530  0.06805420    -0.32600
C501        C  0.10068649  0.47537295  0.03661387     0.20800
C502        C  0.11830011  0.48312484  0.00863223     0.03000
C503        C  0.14416000  0.48444284  0.01075560    -0.22400
C504        C  0.15173580  0.47818188  0.04229543     0.12200
S505        S  0.14757438  0.46529627  0.10671640    -0.06000
C506        C  0.17715157  0.47297101  0.08407344    -0.09500
C507        C  0.17642012  0.47926295  0.04995084    -0.26100
S508        S  0.10672608  0.49160474  0.47245007    -0.03300
C509        C  0.07678033  0.48279441  0.49496772    -0.16800
C510        C  0.07661257  0.47563987  0.02965221    -0.14700
H511        H  0.09462511  0.46340903  0.09001501     0.20600
H512        H  0.15857266  0.49031542  0.48811022     0.16700
H513        H  0.19325335  0.48500710  0.03201609     0.19200
H514        H  0.06013149  0.47059085  0.04790914     0.12500
C515        C  0.13021843  0.67262288  0.07053016     0.16400
C516        C  0.10454972  0.64803408  0.06694899    -0.32600
C517        C  0.09867591  0.63427474  0.03549185     0.20800
C518        C  0.11753603  0.64446362  0.00874298     0.03000
C519        C  0.14301849  0.66939529  0.01211448    -0.22400
C520        C  0.14890813  0.68319904  0.04364162     0.12200
S521        S  0.14164596  0.69157591  0.10717032    -0.06000
C522        C  0.17193603  0.71425992  0.08612370    -0.09500
C523        C  0.17285384  0.70729262  0.05234713    -0.26100
S524        S  0.10780675  0.62180201  0.47584828    -0.03300
C525        C  0.07680139  0.60049769  0.49635661    -0.16800
C526        C  0.07508429  0.60981547  0.02737013    -0.14700
H527        H  0.08996206  0.63976572  0.08794712     0.20600
H528        H  0.15904919  0.67476567  0.49400780     0.16700
H529        H  0.19030457  0.71886306  0.03534120     0.19200
H530        H  0.05772744  0.59826042  0.04452252     0.12500
C531        C  0.30328903  0.84456794  0.06915093     0.16400
C532        C  0.32776609  0.87025180  0.06559416    -0.32600
C533        C  0.34367973  0.87452372  0.03623394     0.20800
C534        C  0.33578892  0.85403220  0.01155849     0.03000
C535        C  0.31095479  0.82840088  0.01483530    -0.22400
C536        C  0.29482601  0.82421589  0.04417433     0.12200
S537        S  0.28216880  0.83512553  0.10387165    -0.06000
C538        C  0.26136572  0.80339222  0.08465004    -0.09500
C539        C  0.27039720  0.80054385  0.05270944    -0.26100
S540        S  0.36091356  0.86113494  0.48058941    -0.03300
C541        C  0.37957335  0.89418120  0.49772621    -0.16800
C542        C  0.36804163  0.89822054  0.02829072    -0.14700
H543        H  0.33427193  0.88614462  0.08506979     0.20600
H544        H  0.30781640  0.80970539  0.49946544     0.16700
H545        H  0.26030169  0.78185745  0.03728927     0.19200
H546        H  0.37776688  0.91675975  0.04400994     0.12500
C547        C  0.13121815  0.67435026  0.27799173     0.16400
C548        C  0.10531476  0.65001629  0.28115986    -0.32600
C549        C  0.10038903  0.63414016  0.31083034     0.20800
C550        C  0.12029476  0.64218311  0.33640055     0.03000
C551        C  0.14605647  0.66691432  0.33355882    -0.22400
C552        C  0.15107754  0.68275519  0.30368252     0.12200
S553        S  0.14172086  0.69516417  0.24282668    -0.06000
C554        C  0.17331677  0.71561164  0.26274911    -0.09500
C555        C  0.17527209  0.70672641  0.29524521    -0.26100
S556        S  0.11049844  0.61938883  0.36982488    -0.03300
C557        C  0.07915552  0.59904453  0.34922346    -0.16800
C558        C  0.07669312  0.60953708  0.31812807    -0.14700
H559        H  0.08987418  0.64343540  0.26102491     0.20600
H560        H  0.16167987  0.67322818  0.35342568     0.16700
H561        H  0.19368967  0.71662475  0.31122468     0.19200
H562        H  0.05855940  0.59962850  0.30166808     0.12500
C563        C  0.33715318  0.85547006  0.33722875     0.16400
C564        C  0.31300307  0.82939255  0.33301570    -0.32600
C565        C  0.29700512  0.82515628  0.30341492     0.20800
C566        C  0.30487164  0.84593087  0.27905762     0.03000
C567        C  0.32868700  0.87212452  0.28357720    -0.22400
C568        C  0.34455209  0.87639745  0.31320023     0.12200
S569        S  0.35992913  0.86448608  0.37064495    -0.06000
C570        C  0.37944075  0.89687479  0.35217932    -0.09500
C571        C  0.36859615  0.90031476  0.32184169    -0.26100
S572        S  0.28372557  0.83634090  0.24405757    -0.03300
C573        C  0.26369160  0.80403667  0.26247978    -0.16800
C574        C  0.27311814  0.80111065  0.29423953    -0.14700
H575        H  0.30712962  0.81303283  0.35177209     0.20600
H576        H  0.33478487  0.88836326  0.26459328     0.16700
H577        H  0.37804566  0.91916536  0.30664271     0.19200
H578        H  0.26348557  0.78219992  0.30931189     0.12500
C579        C  0.48938096  0.66868198  0.30757100     0.16400
C580        C  0.48307530  0.65021430  0.33500289    -0.32600
C581        C  0.48599300  0.62680016  0.32987456     0.20800
C582        C  0.49506572  0.62215850  0.29894237     0.03000
C583        C  0.50078192  0.64027024  0.27133937    -0.22400
C584        C  0.49762003  0.66348967  0.27638381     0.12200
S585        S  0.48775961  0.69860459  0.30865055    -0.06000
C586        C  0.49750853  0.70362926  0.26634528    -0.09500
C587        C  0.50210024  0.68334131  0.25258478    -0.26100
S588        S  0.49905688  0.59365750  0.29845350    -0.03300
C589        C  0.48791316  0.58758041  0.34022220    -0.16800
C590        C  0.48141007  0.60671660  0.35355990    -0.14700
H591        H  0.47642646  0.65404289  0.35933571     0.20600
H592        H  0.50765436  0.63657270  0.24708264     0.16700
H593        H  0.50843057  0.68315226  0.22651322     0.19200
H594        H  0.47454248  0.60641504  0.37947625     0.12500
C595        C  0.51197069  0.84027182  0.27596155     0.16400
C596        C  0.51480612  0.86672147  0.27975789    -0.32600
C597        C  0.50688767  0.87289267  0.31109235     0.20800
C598        C  0.49653208  0.85355991  0.33738889     0.03000
C599        C  0.49447604  0.82747498  0.33393372    -0.22400
C600        C  0.50243108  0.82133488  0.30269198     0.12200
S601        S  0.51815048  0.82775653  0.23915604    -0.06000
C602        C  0.50796713  0.79676495  0.26015320    -0.09500
C603        C  0.50059210  0.79657254  0.29397971    -0.26100
S604        S  0.48617834  0.86417984  0.37246767    -0.03300
C605        C  0.49635358  0.89525851  0.35183689    -0.16800
C606        C  0.50726290  0.89708968  0.31946518    -0.14700
H607        H  0.52220769  0.88157222  0.25894627     0.20600
H608        H  0.48637323  0.81234587  0.35442992     0.16700
H609        H  0.49306805  0.77879325  0.31089735     0.19200
H610        H  0.51441376  0.91489497  0.30266248     0.12500
C611        C  0.49129594  0.61847971  0.04641575     0.16400
C612        C  0.49631980  0.63577780  0.07476488    -0.32600
C613        C  0.48735001  0.65529803  0.07295218     0.20800
C614        C  0.47406015  0.65753167  0.04409210     0.03000
C615        C  0.46867656  0.63997040  0.01592828    -0.22400
C616        C  0.47756355  0.62039236  0.01781027     0.12200
S617        S  0.50118458  0.59400084  0.04333634    -0.06000
C618        C  0.48773441  0.58686110  0.50389149    -0.09500
C619        C  0.47436648  0.60130268  0.49438211    -0.26100
S620        S  0.46628731  0.68356263  0.04603479    -0.03300
C621        C  0.48098983  0.69155997  0.08625744    -0.16800
C622        C  0.49109339  0.67456433  0.09745352    -0.14700
H623        H  0.50704938  0.63430326  0.09710375     0.20600
H624        H  0.45598621  0.63962114  0.49532450     0.16700
H625        H  0.46306594  0.59819453  0.47069110     0.19200
H626        H  0.50157781  0.67687351  0.12160708     0.12500
C627        C  0.47428216  0.80847747  0.04661511     0.16400
C628        C  0.46573229  0.82068915  0.02150937    -0.32600
C629        C  0.47737106  0.84972533  0.02242192     0.20800
C630        C  0.49653217  0.86580008  0.04731250     0.03000
C631        C  0.50476604  0.85356467  0.07263653    -0.22400
C632        C  0.49323248  0.82462709  0.07165920     0.12200
S633        S  0.46351693  0.77380482  0.04929408    -0.06000
C634        C  0.48456760  0.78124039  0.08470305    -0.09500
C635        C  0.49905323  0.80908456  0.09374516    -0.26100
S636        S  0.50726881  0.90099047  0.54591809    -0.03300
C637        C  0.48864352  0.89455386  0.50845386    -0.16800
C638        C  0.47240917  0.86564870  0.99973985    -0.14700
H639        H  0.45098186  0.80817667  0.00187011     0.20600
H640        H  0.51979186  0.86610911  0.09202043     0.16700
H641        H  0.51340363  0.81754813  0.11504275     0.19200
H642        H  0.45836544  0.85736752  0.97814276     0.12500
C643        C  0.48439294  0.71680323  0.60432353     0.80700
N644        N  0.49088160  0.72030771  0.63818755    -0.77600
C645        C  0.49414114  0.74327568  0.65480598     0.83100
N646        N  0.49127584  0.76280150  0.63732022    -0.77600
C647        C  0.48473140  0.75942718  0.60364921     0.83200
N648        N  0.48104252  0.73629316  0.58732177    -0.79300
C649        C  0.49916086  0.72694025  0.74536311     0.78300
N650        N  0.49780996  0.72532013  0.71073188    -0.77600
C651        C  0.49873387  0.74633308  0.69192366     0.83100
N652        N  0.50143110  0.76927394  0.70792049    -0.77600
C653        C  0.50281810  0.77114222  0.74250022     0.83200
N654        N  0.50127818  0.74971623  0.76114976    -0.79300
C655        C  0.24006149  0.78086688  0.74502760     0.80700
N656        N  0.23842579  0.78208164  0.71051555    -0.77600
C657        C  0.21608698  0.76210683  0.69336791     0.83100
N658        N  0.19515111  0.74102824  0.71091203    -0.77600
C659        C  0.19643601  0.73949424  0.74534237     0.83200
N660        N  0.21912011  0.75931610  0.76248157    -0.79300
C661        C  0.23790482  0.78061710  0.60357827     0.80700
N662        N  0.23693134  0.78219128  0.63806890    -0.77600
C663        C  0.21560520  0.76174714  0.65595809     0.83100
N664        N  0.19488190  0.73974307  0.63915825    -0.77600
C665        C  0.19546476  0.73782430  0.60468170     0.83200
N666        N  0.21726785  0.75819129  0.58685237    -0.79300
C667        C  0.20052653  0.47199865  0.60017011     0.80700
N668        N  0.20078723  0.47095964  0.63471443    -0.77600
C669        C  0.22291477  0.47272364  0.65172350     0.83100
N670        N  0.24501370  0.47523893  0.63380333    -0.77600
C671        C  0.24503569  0.47641233  0.59904482     0.83200
N672        N  0.22285908  0.47507931  0.58236938    -0.79300
C673        C  0.20335273  0.47902998  0.73998864     0.80700
N674        N  0.20225403  0.47481172  0.70578931    -0.77600
C675        C  0.22354135  0.47447979  0.68923528     0.83100
N676        N  0.24595723  0.47786776  0.70729238    -0.77600
C677        C  0.24728276  0.48199948  0.74164609     0.83200
N678        N  0.22608508  0.48290836  0.75783953    -0.79300
C679        C  0.76531603  0.25268553  0.74533620     0.80700
N680        N  0.76518065  0.25271220  0.71064377    -0.77600
C681        C  0.74190918  0.23450750  0.69315759     0.83100
N682        N  0.71879525  0.21595414  0.71063565    -0.77600
C683        C  0.71857295  0.21593626  0.74535057     0.83200
N684        N  0.74180000  0.23461868  0.76257379    -0.79300
C685        C  0.75735926  0.26245534  0.60468624     0.80700
N686        N  0.73543927  0.24185834  0.58759121    -0.77600
C687        C  0.71656631  0.21841174  0.60398535     0.83100
N688        N  0.71916878  0.21579697  0.63805864    -0.77600
C689        C  0.74076622  0.23643980  0.65569087     0.83200
N690        N  0.76002643  0.25967580  0.63884114    -0.79300
C691        C  0.72252063  0.51470842  0.60237501     0.80700
N692        N  0.72433311  0.51717227  0.63676613    -0.77600
C693        C  0.74692233  0.52008825  0.65374733     0.83100
N694        N  0.76836724  0.52114316  0.63595415    -0.77600
C695        C  0.76694746  0.51889395  0.60131228     0.83200
N696        N  0.74378092  0.51525323  0.58456031    -0.79300
C697        C  0.72089380  0.51387762  0.74142599     0.80700
N698        N  0.74048668  0.51172620  0.75985603    -0.77600
C699        C  0.76342849  0.51415900  0.74414968     0.83100
N700        N  0.76624276  0.51789414  0.70970272    -0.77600
C701        C  0.74638866  0.51954995  0.69119709     0.83200
N702        N  0.72399007  0.51777208  0.70727780    -0.79300
C703        C  0.48030468  0.21424968  0.74173707     0.80700
N704        N  0.47943491  0.23455927  0.75999424    -0.77600
C705        C  0.47745124  0.25514738  0.74370085     0.83100
N706        N  0.47690530  0.25566461  0.70902282    -0.77600
C707        C  0.47822993  0.23559654  0.69080200     0.83200
N708        N  0.47977368  0.21496968  0.70727129    -0.79300
C709        C  0.48729883  0.21917346  0.60254604     0.80700
N710        N  0.48265903  0.21703636  0.63660571    -0.77600
C711        C  0.48046753  0.23707455  0.65364337     0.83100
N712        N  0.48251307  0.25922014  0.63638218    -0.77600
C713        C  0.48714393  0.26150356  0.60220224     0.83200
N714        N  0.48981454  0.24158977  0.58542807    -0.79300
O715        O  0.50355333  0.55582861  0.99020152    -0.74800
O716        O  0.46737420  0.55268971  0.95876337    -0.53800
C717        C  0.48583404  0.56354660  0.98250566     0.78900
O718        O  0.54848223  0.50627969  0.85101939    -0.59400
O719        O  0.54340282  0.46962279  0.88301472    -0.52500
C720        C  0.55530708  0.48800052  0.85959261     0.70900
O721        O  0.50317682  0.55549539  0.85098102    -0.74000
O722        O  0.46796172  0.55313998  0.88353492    -0.54600
C723        C  0.48620933  0.56389267  0.85955815     0.76900
O724        O  0.55114866  0.50889830  0.98793469    -0.59100
O725        O  0.54655832  0.47289547  0.95513406    -0.52300
C726        C  0.55871631  0.49145482  0.97836775     0.73500
Zr727      Zr  0.51669611  0.52204342  0.97079752     2.54700
O728        O  0.56031216  0.56595540  0.96524709    -0.79700
O729        O  0.52040730  0.52558265  0.53353858    -0.93100
Zr730      Zr  0.51522923  0.52071052  0.86932096     2.64700
O731        O  0.56020360  0.56342959  0.87227550    -0.98100
O732        O  0.51438936  0.52062332  0.80719987    -0.80100
O733        O  0.50320849  0.53579034  0.92004491    -0.83500
O734        O  0.52953255  0.50821265  0.92002956    -2.18200
O735        O  0.45766162  0.41733600  0.99219175    -0.66900
O736        O  0.49347727  0.42088560  0.96008137    -0.51500
C737        C  0.47546759  0.40995986  0.98409214     0.71900
O738        O  0.40945463  0.46400899  0.85231280    -0.59800
O739        O  0.41422693  0.50079630  0.88362768    -0.51800
C740        C  0.40262198  0.48233298  0.86008403     0.73700
O741        O  0.45576098  0.41615320  0.85141115    -0.71200
O742        O  0.49136325  0.41907000  0.88378327    -0.49900
C743        C  0.47327669  0.40832984  0.85967256     0.75100
O744        O  0.41119247  0.46399960  0.99208558    -0.66500
O745        O  0.41384751  0.49925367  0.95918243    -0.53700
C746        C  0.40314983  0.48120605  0.98346156     0.73400
Zr747      Zr  0.44434901  0.45070207  0.97233825     2.77500
O748        O  0.40073950  0.40655088  0.96946843    -0.97300
O749        O  0.44353450  0.45023020  0.53476829    -0.78100
Zr750      Zr  0.44267421  0.44986363  0.87093398     2.70100
O751        O  0.39874178  0.40602583  0.87387833    -0.79300
O752        O  0.44084842  0.44930393  0.80881283    -0.98400
Zr753      Zr  0.45353187  0.51321157  0.92122061     2.21500
Zr754      Zr  0.50529711  0.45865381  0.92087192     2.11100
O755        O  0.45572887  0.43559261  0.92154090    -2.47100
O756        O  0.42951978  0.46348949  0.92185098    -0.79100
O757        O  0.49361875  0.47266759  0.97259537    -0.71300
O758        O  0.46598339  0.49913524  0.86983894    -2.32300
O759        O  0.46740731  0.50002266  0.97244900    -2.28500
O760        O  0.49191340  0.47142785  0.86929906    -0.73100
H761        H  0.54945908  0.51584252  0.91954066     0.78900
H762        H  0.46006475  0.50515989  0.84998114     0.80000
H763        H  0.44763370  0.41560049  0.92182941     0.82200
H764        H  0.46179739  0.50610407  0.99242592     0.79800
H765        H  0.50585815  0.50073413  0.80090079     0.42900
H766        H  0.45927907  0.45246640  0.80152776     0.41800
H767        H  0.38860434  0.40573255  0.85289461     0.41500
H768        H  0.39412682  0.40266189  0.99337591     0.39400
H769        H  0.46331000  0.46143541  0.54176308     0.42600
H770        H  0.54045227  0.53816561  0.53835218     0.37400
H771        H  0.56113396  0.57679099  0.98569142     0.43500
H772        H  0.56078501  0.57407862  0.85168503     0.39900
H773        H  0.38762081  0.41101718  0.95776699     0.44800
H774        H  0.51663542  0.50700777  0.54122426     0.43500
H775        H  0.55838784  0.57393273  0.89151469     0.43700
H776        H  0.42766071  0.42965334  0.80278543     0.44000
O777        O  0.03142054  0.56634147  0.85542714    -0.74800
O778        O  0.06304276  0.56237282  0.88869882    -0.53800
C779        C  0.05644117  0.57457797  0.86572479     0.78900
O780        O  0.93510319  0.52131513  0.98600451    -0.59400
O781        O  0.90325955  0.48440618  0.95448200    -0.52500
C782        C  0.90997273  0.50390359  0.97654422     0.70900
O783        O  0.02925361  0.56877317  0.98664584    -0.74000
O784        O  0.06181128  0.56281129  0.95837605    -0.54600
C785        C  0.05454213  0.57601263  0.97894923     0.76900
O786        O  0.93776699  0.51613399  0.84838079    -0.59100
O787        O  0.90455328  0.48145099  0.88133057    -0.52300
C788        C  0.91233933  0.49927396  0.85683309     0.73500
Zr789      Zr  0.98411800  0.52948806  0.86924401     2.54700
O790        O  0.98189323  0.57217890  0.86865124    -0.79700
O791        O  0.98810017  0.52945112  0.80733541    -0.93100
Zr792      Zr  0.98231697  0.53219870  0.97105443     2.64700
O793        O  0.98100335  0.57538721  0.96865885    -0.98100
O794        O  0.98043545  0.53057223  0.53290201    -0.80100
O795        O  0.00977481  0.54474011  0.92077030    -0.83500
O796        O  0.95653923  0.51811953  0.91930311    -2.18200
O797        O  0.93614733  0.42139129  0.85799065    -0.66900
O798        O  0.90377701  0.42747524  0.88648137    -0.51500
C799        C  0.91082493  0.41424794  0.86561303     0.71900
O800        O  0.02909069  0.47050127  0.99118782    -0.59800
O801        O  0.06142093  0.50680180  0.95930123    -0.51800
C802        C  0.05427461  0.48743652  0.98158846     0.73700
O803        O  0.93509759  0.42926911  0.99653378    -0.71200
O804        O  0.90292113  0.43106075  0.96178737    -0.49900
C805        C  0.90987065  0.42119623  0.98737135     0.75100
O806        O  0.03114002  0.46961235  0.85878584    -0.66500
O807        O  0.06273647  0.50830284  0.88795620    -0.53700
C808        C  0.05629711  0.48847140  0.86656031     0.73400
Zr809      Zr  0.98339954  0.45763301  0.87436972     2.77500
O810        O  0.98410850  0.41416298  0.87713326    -0.97300
O811        O  0.98320252  0.45603345  0.81233264    -0.78100
Zr812      Zr  0.98221292  0.46096423  0.97618707     2.70100
O813        O  0.97779139  0.41508205  0.97757486    -0.79300
O814        O  0.98703184  0.46293106  0.53761941    -0.98400
Zr815      Zr  0.03591206  0.52162829  0.92357677     2.21500
Zr816      Zr  0.92959193  0.46857994  0.92144963     2.11100
O817        O  0.95594402  0.44538924  0.92486356    -2.47100
O818        O  0.00947380  0.47213583  0.92587348    -0.79100
O819        O  0.95662616  0.48009749  0.87049013    -0.71300
O820        O  0.00954239  0.51021939  0.97496102    -2.32300
O821        O  0.01069235  0.50697873  0.87127614    -2.28500
O822        O  0.95507556  0.48303520  0.97355643    -0.73100
H823        H  0.94471420  0.52622717  0.91779649     0.78900
H824        H  0.02165703  0.51681127  0.99466084     0.80000
H825        H  0.94379285  0.42544759  0.92600146     0.82200
H826        H  0.02311946  0.51265966  0.85195117     0.79800
H827        H  0.96235195  0.51389068  0.53847528     0.42900
H828        H  0.96911890  0.46036991  0.54612864     0.41800
H829        H  0.97508440  0.40973453  0.00198283     0.41500
H830        H  0.96676279  0.40100770  0.88921749     0.39400
H831        H  0.97734509  0.46942896  0.80514728     0.42600
H832        H  0.97176608  0.51172010  0.79989770     0.37400
H833        H  0.99752988  0.58520726  0.88343545     0.43500
H834        H  0.98077750  0.58038083  0.99285210     0.39900
H835        H  0.98094721  0.40738182  0.85327338     0.44800
H836        H  0.00425408  0.52690337  0.80307895     0.43500
H837        H  0.99957817  0.58960518  0.96019881     0.43700
H838        H  0.98691486  0.44567797  0.54438446     0.44000
O839        O  0.50961509  0.94289821  0.85871686    -0.74800
O840        O  0.47300098  0.91074030  0.89030805    -0.53800
C841        C  0.49235803  0.91770252  0.86798039     0.78900
O842        O  0.55689617  0.03555519  0.99314578    -0.59400
O843        O  0.55288520  0.06835964  0.96243440    -0.52500
C844        C  0.56464133  0.06095864  0.98521914     0.70900
O845        O  0.50742091  0.94139479  0.99428606    -0.74000
O846        O  0.46909114  0.90944123  0.96489968    -0.54600
C847        C  0.48827166  0.91621920  0.98755783     0.76900
O848        O  0.55138011  0.03701644  0.85204840    -0.59100
O849        O  0.54952790  0.06920455  0.88635379    -0.52300
C850        C  0.55930149  0.06233038  0.86081275     0.73500
Zr851      Zr  0.51908639  0.98975755  0.87311652     2.54700
O852        O  0.56475862  0.99402061  0.86788726    -0.79700
O853        O  0.51044160  0.98448850  0.81183413    -0.93100
Zr854      Zr  0.52124750  0.98873425  0.97558400     2.64700
O855        O  0.56403162  0.98666414  0.97563046    -0.98100
O856        O  0.52038324  0.98911749  0.53825427    -0.80100
O857        O  0.50747254  0.96266186  0.92406535    -0.83500
O858        O  0.53469047  0.01580772  0.92457656    -2.18200
O859        O  0.46044373  0.03814974  0.86094133    -0.66900
O860        O  0.49723750  0.06952443  0.89310263    -0.51500
C861        C  0.47823263  0.06312018  0.87041550     0.71900
O862        O  0.41262784  0.94274008  0.99189540    -0.59800
O863        O  0.41654511  0.91050057  0.96007291    -0.51800
C864        C  0.40426560  0.91756568  0.98228481     0.73700
O865        O  0.46448514  0.03675477  0.99783680    -0.71200
O866        O  0.50101358  0.06890103  0.96614317    -0.49900
C867        C  0.48279749  0.06192103  0.98989963     0.75100
O868        O  0.41142455  0.94360623  0.86206453    -0.66500
O869        O  0.41707820  0.91085322  0.89066692    -0.53700
C870        C  0.40401353  0.91825714  0.86992848     0.73400
Zr871      Zr  0.44816385  0.99066254  0.87709346     2.77500
O872        O  0.40442091  0.99087854  0.87968482    -0.97300
O873        O  0.44738474  0.99191194  0.81502201    -0.78100
Zr874      Zr  0.45047563  0.98968703  0.97879048     2.70100
O875        O  0.40776823  0.99153270  0.98435469    -0.79300
O876        O  0.44997766  0.98643585  0.53955593    -0.98400
Zr877      Zr  0.45794478  0.93651851  0.92583202     2.21500
Zr878      Zr  0.51217558  0.04275481  0.92654766     2.11100
O879        O  0.46245365  0.01699984  0.92831257    -2.47100
O880        O  0.43548695  0.96350786  0.92763889    -0.79100
O881        O  0.49746507  0.01724947  0.87462264    -0.71300
O882        O  0.47198328  0.96220072  0.97771799    -2.32300
O883        O  0.46974082  0.96295942  0.87422443    -2.28500
O884        O  0.49981615  0.01637033  0.97795673    -0.73100
H885        H  0.55468896  0.02768879  0.92387546     0.78900
H886        H  0.46583647  0.95006570  0.99738412     0.80000
H887        H  0.45481150  0.02924165  0.92932902     0.82200
H888        H  0.46309691  0.95084353  0.85456646     0.79800
H889        H  0.50079824  0.97569664  0.54426140     0.42900
H890        H  0.46813208  0.00227661  0.54685574     0.41800
H891        H  0.40027594  0.98879252  0.96083436     0.41500
H892        H  0.40794307  0.00584532  0.89609261     0.39400
H893        H  0.45753330  0.98238765  0.80772494     0.42600
H894        H  0.52457130  0.98031303  0.80275180     0.37400
H895        H  0.56384228  0.97914273  0.88276658     0.43500
H896        H  0.56616936  0.98224908  0.99956322     0.39900
H897        H  0.40292356  0.99828436  0.85726331     0.44800
H898        H  0.51630016  0.00345984  0.80338332     0.43500
H899        H  0.55932768  0.96951789  0.96276405     0.43700
H900        H  0.43610199  0.99161257  0.54680777     0.44000
C901        C  0.49368134  0.31898611  0.54236837     0.16400
C902        C  0.49847211  0.33764443  0.01530788    -0.32600
C903        C  0.48757627  0.35500335  0.51747026     0.20800
C904        C  0.47344158  0.35556492  0.54630189     0.03000
C905        C  0.46969861  0.33825512  0.57424699    -0.22400
C906        C  0.48017537  0.32003190  0.57156959     0.12200
S907        S  0.50301489  0.29404218  0.54309282    -0.06000
C908        C  0.48876868  0.28508893  0.58328587    -0.09500
C909        C  0.47768785  0.30088667  0.59541462    -0.26100
S910        S  0.46155798  0.37853535  0.54400525    -0.03300
C911        C  0.47536807  0.38748240  0.00393573    -0.16800
C912        C  0.48969573  0.37426546  0.99382751    -0.14700
H913        H  0.51070483  0.33832113  0.99346698     0.20600
H914        H  0.45874381  0.33867165  0.59685450     0.16700
H915        H  0.46742617  0.29781915  0.61981835     0.19200
H916        H  0.50162467  0.37866480  0.97050967     0.12500
C917        C  0.47867072  0.11260934  0.55071106     0.16400
C918        C  0.47294753  0.12565294  0.57743541    -0.32600
C919        C  0.48268402  0.15422540  0.57420456     0.20800
C920        C  0.49737590  0.16912319  0.54565902     0.03000
C921        C  0.50365824  0.15622177  0.51936086    -0.22400
C922        C  0.49397009  0.12770609  0.52259661     0.12200
S923        S  0.46756079  0.07790071  0.54885987    -0.06000
C924        C  0.48287564  0.08438971  0.00955763    -0.09500
C925        C  0.49563700  0.11166837  0.99815821    -0.26100
S926        S  0.50575429  0.20314811  0.54543642    -0.03300
C927        C  0.48959448  0.19735744  0.58440873    -0.16800
C928        C  0.47849869  0.17046424  0.59683553    -0.14700
H929        H  0.46102535  0.11397465  0.59945058     0.20600
H930        H  0.51311330  0.16799483  0.99509234     0.16700
H931        H  0.50639083  0.11895520  0.97402715     0.19200
H932        H  0.46729540  0.16302409  0.62066614     0.12500
C933        C  0.48553636  0.31351110  0.80278403     0.16400
C934        C  0.49292109  0.33336306  0.82866851    -0.32600
C935        C  0.48275460  0.35186619  0.82621701     0.20800
C936        C  0.46599571  0.35069871  0.79919754     0.03000
C937        C  0.45919819  0.33130094  0.77283492    -0.22400
C938        C  0.46939611  0.31280798  0.77527210     0.12200
S939        S  0.49486986  0.28856540  0.80183718    -0.06000
C940        C  0.47755032  0.27759302  0.76348121    -0.09500
C941        C  0.46497552  0.29236783  0.75237698    -0.26100
S942        S  0.45456164  0.37400138  0.80189818    -0.03300
C943        C  0.47274282  0.38561856  0.83971587    -0.16800
C944        C  0.48697640  0.37207871  0.84934815    -0.14700
H945        H  0.50568743  0.33408679  0.85004510     0.20600
H946        H  0.44624522  0.33042733  0.75159886     0.16700
H947        H  0.45315838  0.28827478  0.72893042     0.19200
H948        H  0.49937597  0.37647057  0.87234194     0.12500
C949        C  0.47846806  0.14832188  0.77387367     0.16400
C950        C  0.47499292  0.12167409  0.77747169    -0.32600
C951        C  0.47607648  0.11264672  0.81054886     0.20800
C952        C  0.48100608  0.12962568  0.83871609     0.03000
C953        C  0.48420855  0.15617654  0.83513397    -0.22400
C954        C  0.48262304  0.16500164  0.80212256     0.12200
S955        S  0.47713962  0.16274104  0.73604565    -0.06000
C956        C  0.48132565  0.19119039  0.75864497    -0.09500
C957        C  0.48429505  0.18970391  0.79353927    -0.26100
S958        S  0.48332261  0.11553340  0.87642700    -0.03300
C959        C  0.47711237  0.08630043  0.85405098    -0.16800
C960        C  0.47332883  0.08749361  0.81928990    -0.14700
H961        H  0.47147909  0.10851748  0.75548308     0.20600
H962        H  0.48774746  0.16935312  0.85710698     0.16700
H963        H  0.48699271  0.20556478  0.81167705     0.19200
H964        H  0.46991608  0.07130461  0.80127916     0.12500
C965        C  0.61835973  0.48470847  0.82556672     0.16400
C966        C  0.64133007  0.48094664  0.82117988    -0.32600
C967        C  0.65951961  0.49520167  0.79416546     0.20800
C968        C  0.65459880  0.51180621  0.77200658     0.03000
C969        C  0.63167128  0.51552071  0.77638111    -0.22400
C970        C  0.61390262  0.50186214  0.80383637     0.12200
S971        S  0.59456436  0.47040403  0.85764927    -0.06000
C972        C  0.57890799  0.48835142  0.84208493    -0.09500
C973        C  0.59133705  0.50406056  0.81318321    -0.26100
S974        S  0.67859475  0.52686471  0.74038251    -0.03300
C975        C  0.69586772  0.51117677  0.75757627    -0.16800
C976        C  0.68343885  0.49496922  0.78618297    -0.14700
H977        H  0.64511205  0.46789709  0.83838777     0.20600
H978        H  0.62807226  0.52882720  0.75940614     0.16700
H979        H  0.58454795  0.51682415  0.80007242     0.19200
H980        H  0.69117161  0.48325600  0.79990449     0.12500
C981        C  0.81066981  0.50162569  0.80446610     0.16400
C982        C  0.82218041  0.49357813  0.83096831    -0.32600
C983        C  0.84939049  0.49858705  0.82661816     0.20800
C984        C  0.86458086  0.51139931  0.79744012     0.03000
C985        C  0.85299899  0.51919815  0.77087603    -0.22400
C986        C  0.82570877  0.51385738  0.77501238     0.12200
S987        S  0.77797656  0.49731955  0.80456052    -0.06000
C988        C  0.78448415  0.51156240  0.76415273    -0.09500
C989        C  0.81076605  0.51949326  0.75174581    -0.26100
S990        S  0.89761092  0.51677523  0.79754538    -0.03300
C991        C  0.89081037  0.50117716  0.83712362    -0.16800
C992        C  0.86427532  0.49238982  0.84941310    -0.14700
H993        H  0.81045674  0.48383457  0.85391460     0.20600
H994        H  0.86475459  0.52901276  0.74797117     0.16700
H995        H  0.81850316  0.52879755  0.72694734     0.19200
H996        H  0.85658641  0.48271523  0.87405761     0.12500
C997        C  0.62444535  0.49109071  0.51076152     0.16400
C998        C  0.64867845  0.48930126  0.51446575    -0.32600
C999        C  0.66401865  0.49955149  0.54480268     0.20800
C1000       C  0.65514841  0.51037448  0.57055318     0.03000
C1001       C  0.63109847  0.51230074  0.56676729    -0.22400
C1002       C  0.61621251  0.50276276  0.53617719     0.12200
S1003       S  0.60423800  0.48278936  0.97429493    -0.06000
C1004       C  0.58336951  0.49303043  0.99477719    -0.09500
C1005       C  0.59287645  0.50385189  0.52738113    -0.26100
S1006       S  0.67598229  0.52107553  0.60571899    -0.03300
C1007       C  0.69743444  0.51158936  0.58536417    -0.16800
C1008       C  0.68854569  0.50043826  0.55303787    -0.14700
H1009       H  0.65542206  0.48060155  0.49447007     0.20600
H1010       H  0.62444221  0.52114736  0.58668715     0.16700
H1011       H  0.58314700  0.51241620  0.54339983     0.19200
H1012       H  0.69921558  0.49308864  0.53671726     0.12500
C1013       C  0.84415789  0.50281684  0.50690347     0.16400
C1014       C  0.81697251  0.49744573  0.51266424    -0.32600
C1015       C  0.81247954  0.50989043  0.54120235     0.20800
C1016       C  0.83411057  0.52696523  0.56299866     0.03000
C1017       C  0.86138937  0.53282958  0.55681043    -0.22400
C1018       C  0.86585194  0.52029792  0.52835936     0.12200
S1019       S  0.85375298  0.48948770  0.97553072    -0.06000
C1020       C  0.88716238  0.50660325  0.99181063    -0.09500
C1021       C  0.89066399  0.52256305  0.51887298    -0.26100
S1022       S  0.82409611  0.53846459  0.59751737    -0.03300
C1023       C  0.79042721  0.52025235  0.58234246    -0.16800
C1024       C  0.78736629  0.50628894  0.55191841    -0.14700
H1025       H  0.80039472  0.48598241  0.99534459     0.20600
H1026       H  0.87827935  0.54604938  0.57388544     0.16700
H1027       H  0.91015389  0.53491650  0.53235917     0.19200
H1028       H  0.76769559  0.49339388  0.53903558     0.12500
C1029       C  0.62660875  0.11043856  0.54227749     0.16400
C1030       C  0.64704931  0.12291118  0.56765921    -0.32600
C1031       C  0.66226487  0.15208340  0.56872750     0.20800
C1032       C  0.65782089  0.16809668  0.54506348     0.03000
C1033       C  0.63734298  0.15563231  0.51980636    -0.22400
C1034       C  0.62174942  0.12651522  0.51918971     0.12200
S1035       S  0.60524969  0.07542853  0.53731556    -0.06000
C1036       C  0.58849248  0.08311081  0.00409877    -0.09500
C1037       C  0.60026591  0.11122786  0.99657013    -0.26100
S1038       S  0.67899656  0.20310803  0.54988270    -0.03300
C1039       C  0.69353900  0.19614393  0.58465919    -0.16800
C1040       C  0.68257920  0.16813135  0.59186524    -0.14700
H1041       H  0.65069158  0.11044972  0.58599832     0.20600
H1042       H  0.63356365  0.16809211  0.50161207     0.16700
H1043       H  0.59367541  0.11961746  0.97591009     0.19200
H1044       H  0.68951953  0.15999528  0.61244024     0.12500
C1045       C  0.80428745  0.32298110  0.54463199     0.16400
C1046       C  0.81746185  0.33986967  0.01618453    -0.32600
C1047       C  0.84420711  0.36270498  0.52033099     0.20800
C1048       C  0.85905078  0.36605805  0.55019609     0.03000
C1049       C  0.84663749  0.34838842  0.57823607    -0.22400
C1050       C  0.81899646  0.32675850  0.57471957     0.12200
S1051       S  0.77169451  0.29432589  0.54469163    -0.06000
C1052       C  0.77784517  0.28745813  0.58582228    -0.09500
C1053       C  0.80383652  0.30664892  0.59858802    -0.26100
S1054       S  0.89297242  0.39215114  0.54869118    -0.03300
C1055       C  0.88755383  0.39892541  0.00793820    -0.16800
C1056       C  0.86096591  0.38093533  0.99562274    -0.14700
H1057       H  0.80632604  0.33657370  0.99232732     0.20600
H1058       H  0.85827404  0.35094997  0.60149781     0.16700
H1059       H  0.81156245  0.30548060  0.62359270     0.19200
H1060       H  0.85388070  0.38154834  0.97001631     0.12500
C1061       C  0.65672658  0.16921840  0.80426282     0.16400
C1062       C  0.63825610  0.15652141  0.83165813    -0.32600
C1063       C  0.61676720  0.12873743  0.82757730     0.20800
C1064       C  0.61355875  0.11443663  0.79739474     0.03000
C1065       C  0.63137372  0.12744971  0.76966087    -0.22400
C1066       C  0.65308999  0.15499773  0.77390591     0.12200
S1067       S  0.68593118  0.20161649  0.80513476    -0.06000
C1068       C  0.69321157  0.19588789  0.76411513    -0.09500
C1069       C  0.67364952  0.17032935  0.75066746    -0.26100
S1070       S  0.58777546  0.08025463  0.79837774    -0.03300
C1071       C  0.58103247  0.08512018  0.83993808    -0.16800
C1072       C  0.59787154  0.11212065  0.85192505    -0.14700
H1073       H  0.64114664  0.16743602  0.85553700     0.20600
H1074       H  0.62905878  0.11621895  0.74619222     0.16700
H1075       H  0.67501679  0.16287329  0.72563951     0.19200
H1076       H  0.59693142  0.11897965  0.87748441     0.12500
C1077       C  0.83446553  0.31096858  0.78213813     0.16400
C1078       C  0.86191268  0.33274888  0.78750736    -0.32600
C1079       C  0.86663637  0.35129455  0.81449066     0.20800
C1080       C  0.84503445  0.34809065  0.83525303     0.03000
C1081       C  0.81789467  0.32588169  0.83057682    -0.22400
C1082       C  0.81314254  0.30751269  0.80360361     0.12200
S1083       S  0.82352708  0.28812006  0.74861610    -0.06000
C1084       C  0.78998670  0.27380609  0.76401460    -0.09500
C1085       C  0.78776441  0.28590473  0.79377460    -0.26100
S1086       S  0.85440826  0.37351830  0.86517967    -0.03300
C1087       C  0.88803300  0.38867342  0.85008280    -0.16800
C1088       C  0.89151052  0.37446567  0.82312427    -0.14700
H1089       H  0.87863843  0.33564992  0.77074954     0.20600
H1090       H  0.80100767  0.32350484  0.84666520     0.16700
H1091       H  0.76830907  0.28028382  0.80640752     0.19200
H1092       H  0.91106906  0.38093611  0.81027088     0.12500
C1093       C  0.34679473  0.47728713  0.79779480     0.16400
C1094       C  0.32869954  0.47183958  0.77018151    -0.32600
C1095       C  0.30861206  0.47993571  0.77314043     0.20800
C1096       C  0.30656598  0.49290388  0.80229122     0.03000
C1097       C  0.32506163  0.49886853  0.82970561    -0.22400
C1098       C  0.34518280  0.49073124  0.82674675     0.12200
S1099       S  0.37165409  0.46785877  0.79966608    -0.06000
C1100       C  0.38023178  0.48235144  0.83982815    -0.09500
C1101       C  0.36458670  0.49399795  0.85087632    -0.26100
S1102       S  0.27970568  0.49964244  0.80144490    -0.03300
C1103       C  0.27137211  0.48506584  0.76125491    -0.16800
C1104       C  0.28869510  0.47566364  0.74939160    -0.14700
H1105       H  0.32992545  0.46132151  0.74757899     0.20600
H1106       H  0.32353656  0.50896685  0.85253925     0.16700
H1107       H  0.36693673  0.50383037  0.87545833     0.19200
H1108       H  0.28638923  0.46555782  0.72501560     0.12500
C1109       C  0.12366132  0.49317446  0.83301896     0.16400
C1110       C  0.15093381  0.49841867  0.82817112    -0.32600
C1111       C  0.15657512  0.48839106  0.79816567     0.20800
C1112       C  0.13604861  0.47415688  0.77384802     0.03000
C1113       C  0.10872930  0.46869747  0.77884171    -0.22400
C1114       C  0.10298191  0.47834560  0.80907940     0.12200
S1115       S  0.11271056  0.50385760  0.86747271    -0.06000
C1116       C  0.07972394  0.48768491  0.84986912    -0.09500
C1117       C  0.07764740  0.47490547  0.81873527    -0.26100
S1118       S  0.14720317  0.46441469  0.73874344    -0.03300
C1119       C  0.17980210  0.47918702  0.75720080    -0.16800
C1120       C  0.18170826  0.49114045  0.78889977    -0.14700
H1121       H  0.16704084  0.50980380  0.84697978     0.20600
H1122       H  0.09264584  0.45739249  0.75997961     0.16700
H1123       H  0.05874181  0.46408370  0.80372654     0.19200
H1124       H  0.20052334  0.50155735  0.80413604     0.12500
C1125       C  0.34634275  0.47506528  0.54376808     0.16400
C1126       C  0.32852057  0.46967862  0.57154151    -0.32600
C1127       C  0.30745351  0.47640201  0.56808012     0.20800
C1128       C  0.30417914  0.48793963  0.53822606     0.03000
C1129       C  0.31860817  0.48671410  0.00950917    -0.22400
C1130       C  0.34364750  0.48729667  0.51418676     0.12200
S1131       S  0.37225640  0.46710177  0.54257662    -0.06000
C1132       C  0.38000032  0.47980756  0.00331901    -0.09500
C1133       C  0.36110557  0.48683756  0.99028943    -0.26100
S1134       S  0.27616146  0.49287470  0.53848893    -0.03300
C1135       C  0.26910710  0.47964780  0.57944257    -0.16800
C1136       C  0.28763965  0.47194138  0.59196359    -0.14700
H1137       H  0.33069611  0.46021090  0.59467040     0.20600
H1138       H  0.31517675  0.49417235  0.98544761     0.16700
H1139       H  0.36165624  0.49438129  0.96462316     0.19200
H1140       H  0.28627278  0.46289377  0.61690672     0.12500
C1141       C  0.13277149  0.46648716  0.56784084     0.16400
C1142       C  0.10644695  0.46390522  0.56502932    -0.32600
C1143       C  0.09960646  0.47154199  0.53401972     0.20800
C1144       C  0.11805249  0.48107534  0.50681461     0.03000
C1145       C  0.14405865  0.48271830  0.50921868    -0.22400
C1146       C  0.15104771  0.47539078  0.54047378     0.12200
S1147       S  0.14579907  0.46084761  0.60442649    -0.06000
C1148       C  0.17622774  0.47035360  0.58274066    -0.09500
C1149       C  0.17600440  0.47731673  0.54875549    -0.26100
S1150       S  0.10599674  0.49145408  0.97329360    -0.03300
C1151       C  0.07678132  0.48423739  0.99644199    -0.16800
C1152       C  0.07565976  0.47203416  0.52716188    -0.14700
H1153       H  0.09229078  0.45717020  0.58649740     0.20600
H1154       H  0.15797817  0.49060112  0.98898444     0.16700
H1155       H  0.19343842  0.48432460  0.53144983     0.19200
H1156       H  0.05864905  0.46578548  0.54496964     0.12500
C1157       C  0.13040029  0.67204189  0.57193586     0.16400
C1158       C  0.10437449  0.64782631  0.56817926    -0.32600
C1159       C  0.09867944  0.63354500  0.53706162     0.20800
C1160       C  0.11810949  0.64285249  0.51092921     0.03000
C1161       C  0.14390781  0.66739794  0.51443975    -0.22400
C1162       C  0.14956757  0.68177466  0.54550983     0.12200
S1163       S  0.14170098  0.69161475  0.60816180    -0.06000
C1164       C  0.17248632  0.71349410  0.58740783    -0.09500
C1165       C  0.17369029  0.70574239  0.55411259    -0.26100
S1166       S  0.10701798  0.62384163  0.97324355    -0.03300
C1167       C  0.07680963  0.60151944  0.99462103    -0.16800
C1168       C  0.07473714  0.60941580  0.52866182    -0.14700
H1169       H  0.08936226  0.64026633  0.58876247     0.20600
H1170       H  0.15777909  0.67743491  0.99128156     0.16700
H1171       H  0.19143588  0.71671737  0.53735649     0.19200
H1172       H  0.05688856  0.59855570  0.54530319     0.12500
C1173       C  0.30334820  0.84445235  0.56879771     0.16400
C1174       C  0.32733108  0.87048448  0.56430834    -0.32600
C1175       C  0.34406099  0.87403402  0.53589360     0.20800
C1176       C  0.33740540  0.85255470  0.51302961     0.03000
C1177       C  0.31316182  0.82652470  0.51730575    -0.22400
C1178       C  0.29623373  0.82304625  0.54563358     0.12200
S1179       S  0.28119213  0.83580943  0.60251879    -0.06000
C1180       C  0.26184079  0.80298649  0.58522738    -0.09500
C1181       C  0.27212123  0.79921730  0.55470255    -0.26100
S1182       S  0.35865405  0.86319861  0.97837570    -0.03300
C1183       C  0.37857053  0.89518385  0.99764632    -0.16800
C1184       C  0.36806760  0.89792744  0.52718160    -0.14700
H1185       H  0.33282460  0.88721707  0.58234323     0.20600
H1186       H  0.30463459  0.81238066  0.99556726     0.16700
H1187       H  0.26307559  0.77982049  0.54066890     0.19200
H1188       H  0.37682481  0.91716723  0.54152209     0.12500
C1189       C  0.13178253  0.67417247  0.77798007     0.16400
C1190       C  0.10581680  0.64999681  0.78134417    -0.32600
C1191       C  0.10075368  0.63449758  0.81135110     0.20800
C1192       C  0.12073424  0.64252105  0.83682956     0.03000
C1193       C  0.14663396  0.66701515  0.83369042    -0.22400
C1194       C  0.15162397  0.68269336  0.80371082     0.12200
S1195       S  0.14214042  0.69496707  0.74284343    -0.06000
C1196       C  0.17352690  0.71569585  0.76302684    -0.09500
C1197       C  0.17563053  0.70681835  0.79542677    -0.26100
S1198       S  0.11073213  0.62014096  0.87068411    -0.03300
C1199       C  0.07916116  0.60008701  0.85044262    -0.16800
C1200       C  0.07677982  0.61035524  0.81915687    -0.14700
H1201       H  0.09031660  0.64340781  0.76127973     0.20600
H1202       H  0.16226295  0.67342081  0.85356504     0.16700
H1203       H  0.19397783  0.71691442  0.81150672     0.19200
H1204       H  0.05855767  0.60052274  0.80283303     0.12500
C1205       C  0.33645905  0.85462930  0.83909645     0.16400
C1206       C  0.31217381  0.82867724  0.83491592    -0.32600
C1207       C  0.29718707  0.82402313  0.80435179     0.20800
C1208       C  0.30615016  0.84425886  0.77910993     0.03000
C1209       C  0.33016097  0.87022554  0.78346117    -0.22400
C1210       C  0.34498178  0.87493455  0.81399444     0.12200
S1211       S  0.35807191  0.86426201  0.87374428    -0.06000
C1212       C  0.37852969  0.89600182  0.85418032    -0.09500
C1213       C  0.36892178  0.89881557  0.82265971    -0.26100
S1214       S  0.28583634  0.83454772  0.74348006    -0.03300
C1215       C  0.26464696  0.80292028  0.76276543    -0.16800
C1216       C  0.27314184  0.80019599  0.79519769    -0.14700
H1217       H  0.30537488  0.81279392  0.85448483     0.20600
H1218       H  0.33709009  0.88603398  0.76377725     0.16700
H1219       H  0.37918775  0.91719130  0.80667978     0.19200
H1220       H  0.26258197  0.78170135  0.81092123     0.12500
C1221       C  0.48909120  0.66856437  0.80696475     0.16400
C1222       C  0.48252924  0.64992076  0.83432536    -0.32600
C1223       C  0.48606089  0.62681080  0.82951487     0.20800
C1224       C  0.49611199  0.62274350  0.79900391     0.03000
C1225       C  0.50226593  0.64112546  0.77152811    -0.22400
C1226       C  0.49833697  0.66394980  0.77616975     0.12200
S1227       S  0.48640816  0.69792853  0.80758773    -0.06000
C1228       C  0.49714610  0.70359687  0.76562805    -0.09500
C1229       C  0.50276675  0.68383019  0.75228725    -0.26100
S1230       S  0.50033181  0.59435009  0.79870972    -0.03300
C1231       C  0.48797939  0.58747193  0.83997719    -0.16800
C1232       C  0.48094407  0.60635923  0.85301426    -0.14700
H1233       H  0.47504288  0.65329810  0.85830601     0.20600
H1234       H  0.50985137  0.63781037  0.74758182     0.16700
H1235       H  0.50974049  0.68400245  0.72645658     0.19200
H1236       H  0.47322893  0.60557933  0.87858051     0.12500
C1237       C  0.50917798  0.83938681  0.77563606     0.16400
C1238       C  0.51278401  0.86613449  0.77973647    -0.32600
C1239       C  0.50488237  0.87235454  0.81106068     0.20800
C1240       C  0.49392474  0.85282181  0.83709665     0.03000
C1241       C  0.49088001  0.82634325  0.83324158    -0.22400
C1242       C  0.49871157  0.82011219  0.80197739     0.12200
S1243       S  0.51584562  0.82704442  0.73902729    -0.06000
C1244       C  0.50463076  0.79567174  0.75960284    -0.09500
C1245       C  0.49635257  0.79514495  0.79306846    -0.26100
S1246       S  0.48406050  0.86370244  0.87236727    -0.03300
C1247       C  0.49498564  0.89506461  0.85206140    -0.16800
C1248       C  0.50587930  0.89681934  0.81968562    -0.14700
H1249       H  0.52086531  0.88122794  0.75920313     0.20600
H1250       H  0.48224940  0.81104798  0.85351627     0.16700
H1251       H  0.48823363  0.77715048  0.80970407     0.19200
H1252       H  0.51341142  0.91475303  0.80302934     0.12500
C1253       C  0.49277758  0.61975780  0.54673778     0.16400
C1254       C  0.49822330  0.63761259  0.57462141    -0.32600
C1255       C  0.48830252  0.65639457  0.57294293     0.20800
C1256       C  0.47353179  0.65725621  0.54479745     0.03000
C1257       C  0.46748847  0.63893734  0.51732782    -0.22400
C1258       C  0.47751818  0.62026781  0.51893172     0.12200
S1259       S  0.50410411  0.59639859  0.54309028    -0.06000
C1260       C  0.48638409  0.58595551  0.00322195    -0.09500
C1261       C  0.47446064  0.60160669  0.99300965    -0.26100
S1262       S  0.46504778  0.68281187  0.54645205    -0.03300
C1263       C  0.48134920  0.69238349  0.58565343    -0.16800
C1264       C  0.49254384  0.67629214  0.59673108    -0.14700
H1265       H  0.51015670  0.63727022  0.59634979     0.20600
H1266       H  0.45832898  0.64173179  0.99337464     0.16700
H1267       H  0.46425718  0.59948550  0.96868155     0.19200
H1268       H  0.50403508  0.67962094  0.62030753     0.12500
C1269       C  0.47339457  0.80894682  0.54638713     0.16400
C1270       C  0.46609100  0.82164178  0.52062261    -0.32600
C1271       C  0.47704264  0.85048320  0.52275677     0.20800
C1272       C  0.49448150  0.86602475  0.54932087     0.03000
C1273       C  0.50105546  0.85320863  0.57564953    -0.22400
C1274       C  0.49008222  0.82437861  0.57352198     0.12200
S1275       S  0.46399143  0.77457185  0.54722833    -0.06000
C1276       C  0.48219265  0.78101155  0.58498336    -0.09500
C1277       C  0.49483899  0.80836916  0.59601927    -0.26100
S1278       S  0.50904405  0.90068831  0.04342976    -0.03300
C1279       C  0.48836932  0.89375424  0.00771588    -0.16800
C1280       C  0.47326412  0.86671053  0.49948919    -0.14700
H1281       H  0.45301213  0.80969129  0.49941904     0.20600
H1282       H  0.51462926  0.86525413  0.59646571     0.16700
H1283       H  0.50748572  0.81627620  0.61883937     0.19200
H1284       H  0.46054680  0.85883253  0.47672374     0.12500
loop_ 
_geom_bond_atom_site_label_1 
_geom_bond_atom_site_label_2 
_geom_bond_distance 
_geom_bond_site_symmetry_2 
_ccdc_geom_bond_type 
C1            N2   1.364       .  A
C1            N6   1.357       .  A
C1          C621   1.477       .  S
N2            C3   1.365       .  A
C3            N4   1.357       .  A
C3            C9   1.473       .  S
N4            C5   1.356       .  A
C5            N6   1.355       .  A
C5          C634   1.467       .  S
C7            N8   1.358       .  A
C7           N12   1.358       .  A
C7          C586   1.469       .  S
N8            C9   1.356       .  A
C9           N10   1.362       .  A
N10          C11   1.360       .  A
C11          N12   1.359       .  A
C11         C602   1.477       .  S
C13          N14   1.360       .  A
C13          N18   1.364       .  A
C13         C573   1.477       .  S
N14          C15   1.357       .  A
C15          N16   1.354       .  A
C15          C21   1.470       .  S
N16          C17   1.357       .  A
C17          N18   1.363       .  A
C17         C554   1.474       .  S
C19          N20   1.358       .  A
C19          N24   1.362       .  A
C19         C538   1.471       .  S
N20          C21   1.354       .  A
C21          N22   1.356       .  A
N22          C23   1.359       .  A
C23          N24   1.363       .  A
C23         C522   1.475       .  S
C25          N26   1.353       .  A
C25          N30   1.359       .  A
C25         C506   1.471       .  S
N26          C27   1.353       .  A
C27          N28   1.360       .  A
C27          C33   1.468       .  S
N28          C29   1.363       .  A
C29          N30   1.362       .  A
C29         C493   1.475       .  S
C31          N32   1.356       .  A
C31          N36   1.360       .  A
C31         C477   1.476       .  S
N32          C33   1.357       .  A
C33          N34   1.356       .  A
N34          C35   1.360       .  A
C35          N36   1.362       .  A
C35         C461   1.471       .  S
C37          N38   1.360       .  A
C37          N42   1.358       .  A
C37         C442   1.470       .  S
N38          C39   1.359       .  A
C39          N40   1.361       .  A
C39          C47   1.475       .  S
N40          C41   1.360       .  A
C41          N42   1.357       .  A
C41         C426   1.472       .  S
C43          N44   1.356       .  A
C43          N48   1.362       .  A
C43         C410   1.477       .  S
N44          C45   1.355       .  A
C45          N46   1.358       .  A
C45         C397   1.469       .  S
N46          C47   1.360       .  A
C47          N48   1.363       .  A
C49          N50   1.355       .  A
C49          N54   1.360       .  A
C49         C365   1.471       .  S
N50          C51   1.354       .  A
C51          N52   1.356       .  A
C51          C59   1.466       .  S
N52          C53   1.360       .  A
C53          N54   1.362       .  A
C53         C381   1.469       .  S
C55          N56   1.356       .  A
C55          N60   1.354       .  A
C55         C333   1.466       .  S
N56          C57   1.359       .  A
C57          N58   1.360       .  A
C57         C346   1.467       .  S
N58          C59   1.357       .  A
C59          N60   1.356       .  A
C61          N62   1.357       .  A
C61          N66   1.355       .  A
C61         C314   1.469       .  S
N62          C63   1.359       .  A
C63          N64   1.358       .  A
C63         C298   1.463       .  S
N64          C65   1.356       .  A
C65          N66   1.355       .  A
C65          C69   1.462       .  S
C67          N68   1.355       .  A
C67          N72   1.354       .  A
C67         C285   1.462       .  S
N68          C69   1.356       .  A
C69          N70   1.357       .  A
N70          C71   1.358       .  A
C71          N72   1.356       .  A
C71         C266   1.462       .  S
O73         Zr85   2.447       .  S
O73          C75   1.289       .  A
O74        Zr111   2.431       .  S
O74          C75   1.288       .  A
C75         C618   1.477       .  S
O76         Zr88   2.452       .  S
O76          C78   1.290       .  A
O77        Zr112   2.410       .  S
O77          C78   1.283       .  A
C78         C330   1.472       .  S
O79         Zr88   2.438       .  S
O79          C81   1.286       .  A
O80        Zr111   2.433       .  S
O80          C81   1.288       .  A
C81         C589   1.470       .  S
O82         Zr85   2.462       .  S
O82          C84   1.292       .  A
O83        Zr112   2.409       .  S
O83          C84   1.283       .  A
C84         C362   1.472       .  S
Zr85         O86   2.435       .  S
Zr85        O729   2.436       .  S
Zr85         O91   2.378       .  S
Zr85         O92   2.368       .  S
Zr85        O115   2.373       .  S
Zr85        O117   2.375       .  S
O86         H129   0.990       .  S
O87        Zr727   2.435   1_554  S
O87         H128   0.990       .  S
O87         H132   0.990       .  S
Zr88         O89   2.435       .  S
Zr88         O90   2.437       .  S
Zr88         O92   2.368       .  S
Zr88         O91   2.379       .  S
Zr88        O116   2.371       .  S
Zr88        O118   2.371       .  S
O89         H130   0.990       .  S
O89         H133   0.990       .  S
O90         H123   0.990       .  S
O91        Zr111   2.386       .  S
O92        Zr112   2.382       .  S
O92         H119   0.966       .  S
O93        Zr105   2.447       .  S
O93          C95   1.288       .  A
O94        Zr112   2.416       .  S
O94          C95   1.285       .  A
C95         C269   1.471       .  S
O96        Zr108   2.442       .  S
O96          C98   1.288       .  A
O97        Zr111   2.431       .  S
O97          C98   1.288       .  A
C98         C458   1.475       .  S
O99        Zr108   2.446       .  S
O99         C101   1.288       .  A
O100       Zr112   2.418       .  S
O100        C101   1.285       .  A
C101        C301   1.472       .  S
O102       Zr105   2.446       .  S
O102        C104   1.289       .  A
O103       Zr111   2.430       .  S
O103        C104   1.287       .  A
C104        C490   1.475       .  S
Zr105       O106   2.436       .  S
Zr105       O749   2.435       .  S
Zr105       O113   2.374       .  S
Zr105       O114   2.377       .  S
Zr105       O117   2.371       .  S
Zr105       O115   2.374       .  S
O106        H126   0.990       .  S
O106        H131   0.990       .  S
O107       Zr747   2.434   1_554  S
O107        H127   0.990       .  S
Zr108       O109   2.435       .  S
Zr108       O110   2.435       .  S
Zr108       O114   2.376       .  S
Zr108       O113   2.372       .  S
Zr108       O118   2.371       .  S
Zr108       O116   2.371       .  S
O109        H125   0.990       .  S
O110        H124   0.990       .  S
O110        H134   0.990       .  S
Zr111       O114   2.385       .  S
Zr111       O116   2.386       .  S
Zr111       O117   2.390       .  S
Zr112       O113   2.378       .  S
Zr112       O115   2.382       .  S
Zr112       O118   2.375       .  S
O113        H121   0.966       .  S
O116        H120   0.966       .  S
O117        H122   0.966       .  S
O135       Zr147   2.447   1_455  S
O135        C137   1.289       .  A
O136       Zr173   2.416       .  S
O136        C137   1.284       .  A
C137        C557   1.472       .  S
O138       Zr150   2.446       .  S
O138        C140   1.288       .  A
O139       Zr174   2.428       .  S
O139        C140   1.287       .  A
C140        C378   1.475       .  S
O141       Zr150   2.445   1_455  S
O141        C143   1.288       .  A
O142       Zr173   2.421       .  S
O142        C143   1.285       .  A
C143        C525   1.470       .  S
O144       Zr147   2.430       .  S
O144        C146   1.285       .  A
O145       Zr174   2.424       .  S
O145        C146   1.286       .  A
C146        C349   1.466       .  S
Zr147       O148   2.433       .  S
Zr147       O149   2.437       .  S
Zr147       O153   2.371   1_655  S
Zr147       O154   2.375       .  S
Zr147       O177   2.371       .  S
Zr147       O179   2.362   1_655  S
O148        H191   0.990       .  S
O149        H190   0.990       .  S
O149        H194   0.990   1_655  S
Zr150       O151   2.436       .  S
Zr150       O794   2.435       .  S
Zr150       O154   2.378       .  S
Zr150       O153   2.373   1_655  S
Zr150       O178   2.375   1_655  S
Zr150       O180   2.371       .  S
O151        H192   0.990       .  S
O151        H195   0.990       .  S
O152       Zr792   2.435   1_554  S
O152        H185   0.990       .  S
O153       Zr173   2.372       .  S
O154       Zr174   2.384       .  S
O154        H181   0.966       .  S
O155       Zr167   2.460       .  S
O155        C157   1.292       .  A
O156       Zr174   2.418       .  S
O156        C157   1.286       .  A
C157        C445   1.476       .  S
O158       Zr170   2.448   1_455  S
O158        C160   1.289       .  A
O159       Zr173   2.407       .  S
O159        C160   1.283       .  A
C160        C509   1.466       .  S
O161       Zr170   2.450       .  S
O161        C163   1.289       .  A
O162       Zr174   2.428       .  S
O162        C163   1.287       .  A
C163        C413   1.476       .  S
O164       Zr167   2.462   1_455  S
O164        C166   1.291       .  A
O165       Zr173   2.413       .  S
O165        C166   1.284       .  A
C166        C474   1.475       .  S
Zr167       O168   2.436       .  S
Zr167       O169   2.434       .  S
Zr167       O175   2.383       .  S
Zr167       O176   2.370   1_655  S
Zr167       O179   2.375   1_655  S
Zr167       O177   2.376       .  S
O168        H188   0.990   1_655  S
O168        H193   0.990       .  S
O169        H189   0.990       .  S
Zr170       O171   2.434       .  S
Zr170       O814   2.437       .  S
Zr170       O176   2.372   1_655  S
Zr170       O175   2.370       .  S
Zr170       O180   2.374       .  S
Zr170       O178   2.374   1_655  S
O171        H187   0.990       .  S
O172       Zr812   2.438   1_554  S
O172        H186   0.990       .  S
O172        H196   0.990   1_655  S
Zr173       O176   2.377       .  S
Zr173       O178   2.385       .  S
Zr173       O179   2.382       .  S
Zr174       O175   2.388       .  S
Zr174       O177   2.384       .  S
Zr174       O180   2.383       .  S
O175        H183   0.966       .  S
O178        H182   0.966       .  S
O179        H184   0.966       .  S
O197       Zr209   2.444       .  S
O197        C199   1.288       .  A
O198       Zr235   2.431       .  S
O198        C199   1.287       .  A
C199        C605   1.475       .  S
O200       Zr212   2.434   1_545  S
O200        C202   1.286       .  A
O201       Zr236   2.420       .  S
O201        C202   1.286       .  A
C202        C394   1.470       .  S
O203       Zr212   2.432       .  S
O203        C205   1.286       .  A
O204       Zr235   2.428       .  S
O204        C205   1.287       .  A
C205        C637   1.469       .  S
O206       Zr209   2.444   1_545  S
O206        C208   1.288       .  A
O207       Zr236   2.428       .  S
O207        C208   1.287       .  A
C208        C429   1.474       .  S
Zr209       O210   2.437       .  S
Zr209       O211   2.437       .  S
Zr209       O215   2.377       .  S
Zr209       O216   2.374   1_565  S
Zr209       O239   2.373   1_565  S
Zr209       O241   2.375       .  S
O210        H253   0.990   1_565  S
O211        H252   0.990   1_565  S
O211        H256   0.990       .  S
Zr212       O213   2.435       .  S
Zr212       O856   2.436       .  S
Zr212       O216   2.378   1_565  S
Zr212       O215   2.377       .  S
Zr212       O240   2.373       .  S
Zr212       O242   2.365   1_565  S
O213        H254   0.990       .  S
O213        H257   0.990       .  S
O214       Zr854   2.435   1_554  S
O214        H247   0.990   1_565  S
O215       Zr235   2.380       .  S
O216       Zr236   2.380       .  S
O216        H243   0.966       .  S
O217       Zr229   2.455   1_545  S
O217        C219   1.290       .  A
O218       Zr236   2.414       .  S
O218        C219   1.283       .  A
C219        C317   1.468       .  S
O220       Zr232   2.455       .  S
O220        C222   1.291       .  A
O221       Zr235   2.423       .  S
O221        C222   1.286       .  A
C222        C541   1.478       .  S
O223       Zr232   2.440   1_545  S
O223        C225   1.287       .  A
O224       Zr236   2.406       .  S
O224        C225   1.284       .  A
C225        C282   1.464       .  S
O226       Zr229   2.445       .  S
O226        C228   1.289       .  A
O227       Zr235   2.423       .  S
O227        C228   1.286       .  A
C228        C570   1.473       .  S
Zr229       O230   2.436       .  S
Zr229       O231   2.433       .  S
Zr229       O237   2.370   1_565  S
Zr229       O238   2.371       .  S
Zr229       O241   2.384       .  S
Zr229       O239   2.370   1_565  S
O230        H250   0.990       .  S
O230        H255   0.990       .  S
O231        H251   0.990       .  S
Zr232       O233   2.435       .  S
Zr232       O876   2.436       .  S
Zr232       O238   2.368       .  S
Zr232       O237   2.372   1_565  S
Zr232       O242   2.375   1_565  S
Zr232       O240   2.362       .  S
O233        H249   0.990   1_565  S
O234       Zr874   2.436   1_554  S
O234        H248   0.990   1_565  S
O234        H258   0.990       .  S
Zr235       O238   2.380       .  S
Zr235       O240   2.383       .  S
Zr235       O241   2.389       .  S
Zr236       O237   2.386       .  S
Zr236       O239   2.376       .  S
Zr236       O242   2.380       .  S
O237        H245   0.966       .  S
O240        H244   0.966       .  S
O241        H246   0.966       .  S
C259        S265   1.703       .  A
C259        C264   1.388       .  A
C259        C902   1.397       .  A
C260        C901   1.399       .  A
C260        C903   1.401       .  A
C260        H271   1.083       .  S
C261        C262   1.387       .  A
C261        C902   1.399       .  A
C261        C912   1.365   1_554  A
C262        S268   1.705       .  A
C262        C263   1.400       .  A
C263        C264   1.401       .  A
C263        H272   1.083       .  S
C264        C267   1.367       .  A
S265        C266   1.721       .  A
C266        C267   1.384       .  A
C267        H273   1.083       .  S
S268        C911   1.723       .  A
C269        S910   1.723       .  A
C269        C270   1.387       .  A
C270        C903   1.368       .  A
C270        H274   1.083       .  S
C275        S281   1.705       .  A
C275        C280   1.387       .  A
C275        C276   1.399       .  A
C276        C277   1.400       .  A
C276        H287   1.083       .  S
C277        C286   1.365       .  A
C277        C278   1.388       .  A
C278        S284   1.704       .  A
C278        C279   1.398       .  A
C279        C280   1.399       .  A
C279        H930   1.083   1_554  S
C280        C925   1.366   1_554  A
S281        C924   1.722       .  A
C282        S923   1.722       .  A
C282        C283   1.384       .  A
C283        C922   1.365       .  A
C283        H289   1.083       .  S
S284        C285   1.720       .  A
C285        C286   1.384       .  A
C286        H290   1.083       .  S
H288        C921   1.083       .  S
C291        S297   1.704       .  A
C291        C296   1.388       .  A
C291        C292   1.399       .  A
C292        C293   1.400       .  A
C292        H303   1.083       .  S
C293        C302   1.368       .  A
C293        C294   1.387       .  A
C294        S300   1.707       .  A
C294        C295   1.401       .  A
C295        C296   1.402       .  A
C295        H304   1.083       .  S
C296        C299   1.369       .  A
S297        C298   1.719       .  A
C298        C299   1.385       .  A
C299        H305   1.083       .  S
S300        C301   1.724       .  A
C301        C302   1.386       .  A
C302        H306   1.083       .  S
C307        S313   1.701       .  A
C307        C312   1.387       .  A
C307        C308   1.398       .  A
C308        C309   1.398       .  A
C308        H319   1.083       .  S
C309        C318   1.369       .  A
C309        C310   1.388       .  A
C310        S316   1.708       .  A
C310        C311   1.404       .  A
C311        C312   1.404       .  A
C311        H320   1.083       .  S
C312        C315   1.372       .  A
S313        C314   1.721       .  A
C314        C315   1.388       .  A
C315        H321   1.083       .  S
S316        C317   1.725       .  A
C317        C318   1.382       .  A
C318        H322   1.083       .  S
C323        S329   1.705       .  A
C323        C328   1.387       .  A
C323        C324   1.402       .  A
C324        C325   1.402       .  A
C324        H335   1.083       .  S
C325        C334   1.371       .  A
C325        C326   1.388       .  A
C326        S332   1.703       .  A
C326        C327   1.399       .  A
C327        C328   1.400       .  A
C327        H336   1.083       .  S
C328        C331   1.370       .  A
S329        C330   1.726       .  A
C330        C331   1.385       .  A
C331        H337   1.083       .  S
S332        C333   1.720       .  A
C333        C334   1.386       .  A
C334        H338   1.083       .  S
C339        S345   1.703       .  A
C339        C344   1.387       .  A
C339        C340   1.399       .  A
C340        C341   1.400       .  A
C340        H351   1.083       .  S
C341        C350   1.369       .  A
C341        C342   1.388       .  A
C342        S348   1.703       .  A
C342        C343   1.400       .  A
C343        C344   1.401       .  A
C343        H352   1.083       .  S
C344        C347   1.368       .  A
S345        C346   1.721       .  A
C346        C347   1.386       .  A
C347        H353   1.083       .  S
S348        C349   1.723       .  A
C349        C350   1.384       .  A
C350        H354   1.083       .  S
C355       S1003   1.708   1_554  A
C355        C360   1.387       .  A
C355        C356   1.405       .  A
C356        C357   1.404       .  A
C356        H367   1.083   1_554  S
C357        C366   1.374       .  A
C357        C358   1.387       .  A
C358        S364   1.701       .  A
C358        C359   1.399       .  A
C359        C360   1.399       .  A
C359        H368   1.083       .  S
C360        C363   1.370       .  A
S361        C362   1.727       .  A
S361        C997   1.708       .  A
C362       C1005   1.384       .  A
C363       C1004   1.384   1_554  A
C363        H369   1.083       .  S
S364        C365   1.722       .  A
C365        C366   1.387       .  A
C366        H370   1.083       .  S
C371       S1019   1.707   1_554  A
C371        C376   1.387       .  A
C371        C372   1.402       .  A
C372        C373   1.403       .  A
C372       H1025   1.083   1_554  S
C373        C382   1.371       .  A
C373        C374   1.387       .  A
C374        S380   1.706       .  A
C374        C375   1.401       .  A
C375        C376   1.402       .  A
C375        H384   1.083       .  S
C376        C379   1.371       .  A
S377        C378   1.724       .  A
S377       C1013   1.708       .  A
C378       C1021   1.388       .  A
C379       C1020   1.388   1_554  A
C379        H385   1.083       .  S
S380        C381   1.722       .  A
C381        C382   1.385       .  A
C382        H386   1.083       .  S
H383       C1014   1.083       .  S
C387        S393   1.707       .  A
C387        C392   1.387       .  A
C387        C388   1.402       .  A
C388        C389   1.403       .  A
C388        H399   1.083       .  S
C389        C398   1.371       .  A
C389        C390   1.387       .  A
C390        S396   1.706       .  A
C390        C391   1.401       .  A
C391        C392   1.402       .  A
C391        H400   1.083       .  S
C392       C1037   1.371   1_554  A
S393       C1036   1.725       .  A
C394       S1035   1.724       .  A
C394        C395   1.385       .  A
C395       C1034   1.367       .  A
C395        H401   1.083       .  S
S396        C397   1.722       .  A
C397        C398   1.386       .  A
C398        H402   1.083       .  S
C403        S409   1.707       .  A
C403        C408   1.387       .  A
C403       C1046   1.404       .  A
C404       C1045   1.405       .  A
C404       C1047   1.405       .  A
C404        H415   1.083       .  S
C405        C406   1.387       .  A
C405       C1046   1.404       .  A
C405       C1056   1.374   1_554  A
C406        S412   1.706       .  A
C406        C407   1.402       .  A
C407        C408   1.402       .  A
C407        H416   1.083       .  S
C408        C411   1.373       .  A
S409        C410   1.727       .  A
C410        C411   1.386       .  A
C411        H417   1.083       .  S
S412       C1055   1.724       .  A
C413       S1054   1.723       .  A
C413        C414   1.389       .  A
C414       C1047   1.375       .  A
C414        H418   1.083       .  S
C419        S425   1.708       .  A
C419        C424   1.387       .  A
C419        C420   1.403       .  A
C420        C421   1.403       .  A
C420        H431   1.083       .  S
C421        C430   1.372       .  A
C421        C422   1.387       .  A
C422        S428   1.707       .  A
C422        C423   1.402       .  A
C423        C424   1.402       .  A
C423        H432   1.083       .  S
C424        C427   1.371       .  A
S425        C426   1.724       .  A
C426        C427   1.386       .  A
C427        H433   1.083       .  S
S428        C429   1.724       .  A
C429        C430   1.387       .  A
C430        H434   1.083       .  S
C435        S441   1.707       .  A
C435        C440   1.387       .  A
C435        C436   1.403       .  A
C436        C437   1.403       .  A
C436        H447   1.083       .  S
C437        C446   1.374       .  A
C437        C438   1.387       .  A
C438        S444   1.704       .  A
C438        C439   1.401       .  A
C439        C440   1.401       .  A
C439        H448   1.083       .  S
C440        C443   1.370       .  A
S441        C442   1.722       .  A
C442        C443   1.386       .  A
C443        H449   1.083       .  S
S444        C445   1.725       .  A
C445        C446   1.388       .  A
C446        H450   1.083       .  S
C451        S457   1.706       .  A
C451        C456   1.387       .  A
C451        C452   1.402       .  A
C452        C453   1.402       .  A
C452        H463   1.083       .  S
C453        C462   1.370       .  A
C453        C454   1.387       .  A
C454        S460   1.709       .  A
C454        C455   1.402       .  A
C455        C456   1.403       .  A
C455        H464   1.083       .  S
C456        C459   1.372       .  A
S457        C458   1.725       .  A
C458        C459   1.387       .  A
C459        H465   1.083       .  S
S460        C461   1.722       .  A
C461        C462   1.387       .  A
C462        H466   1.083       .  S
C467        S473   1.707       .  A
C467        C472   1.387       .  A
C467        C468   1.404       .  A
C468        C469   1.404       .  A
C468        H479   1.083       .  S
C469        C478   1.374       .  A
C469        C470   1.387       .  A
C470        S476   1.706       .  A
C470        C471   1.403       .  A
C471        C472   1.402       .  A
C471        H480   1.083       .  S
C472        C475   1.373       .  A
S473        C474   1.725       .  A
C474        C475   1.387       .  A
C475        H481   1.083       .  S
S476        C477   1.725       .  A
C477        C478   1.388       .  A
C478        H482   1.083       .  S
C483        S489   1.706       .  A
C483        C488   1.387       .  A
C483        C484   1.403       .  A
C484        C485   1.403       .  A
C484        H495   1.083       .  S
C485        C494   1.373       .  A
C485        C486   1.387       .  A
C486        S492   1.706       .  A
C486       C1129   1.402       .  A
C487       C1128   1.405       .  A
C487       C1130   1.405       .  A
C487        H496   1.083       .  S
C488       C1129   1.402       .  A
C488       C1133   1.373   1_554  A
S489       C1132   1.726       .  A
C490       S1131   1.722       .  A
C490        C491   1.389       .  A
C491       C1130   1.375       .  A
C491        H497   1.083       .  S
S492        C493   1.723       .  A
C493        C494   1.388       .  A
C494        H498   1.083       .  S
C499        S505   1.701       .  A
C499        C504   1.387       .  A
C499        C500   1.400       .  A
C500        C501   1.399       .  A
C500        H511   1.083       .  S
C501        C510   1.370       .  A
C501        C502   1.388       .  A
C502       S1150   1.704   1_554  A
C502        C503   1.402       .  A
C503        C504   1.402       .  A
C503       H1154   1.083   1_554  S
C504        C507   1.373       .  A
S505        C506   1.723       .  A
C506        C507   1.387       .  A
C507        H513   1.083       .  S
S508        C509   1.724       .  A
S508       C1144   1.706       .  A
C509       C1152   1.383       .  A
C510       C1151   1.383   1_554  A
C510        H514   1.083       .  S
H512       C1145   1.083       .  S
C515        S521   1.704       .  A
C515        C520   1.387       .  A
C515        C516   1.400       .  A
C516        C517   1.400       .  A
C516        H527   1.083       .  S
C517        C526   1.369       .  A
C517        C518   1.387       .  A
C518       S1166   1.708   1_554  A
C518        C519   1.403       .  A
C519        C520   1.404       .  A
C519       H1170   1.083   1_554  S
C520        C523   1.374       .  A
S521        C522   1.724       .  A
C522        C523   1.388       .  A
C523        H529   1.083       .  S
S524        C525   1.723       .  A
S524       C1160   1.707       .  A
C525       C1168   1.386       .  A
C526       C1167   1.384   1_554  A
C526        H530   1.083       .  S
H528       C1161   1.083       .  S
C531        S537   1.700       .  A
C531        C536   1.387       .  A
C531        C532   1.398       .  A
C532        C533   1.398       .  A
C532        H543   1.083       .  S
C533        C542   1.368       .  A
C533        C534   1.387       .  A
C534       S1182   1.709   1_554  A
C534        C535   1.405       .  A
C535        C536   1.405       .  A
C535       H1186   1.083   1_554  S
C536        C539   1.375       .  A
S537        C538   1.722       .  A
C538        C539   1.388       .  A
C539        H545   1.083       .  S
S540        C541   1.727       .  A
S540       C1176   1.712       .  A
C541       C1184   1.387       .  A
C542       C1183   1.384   1_554  A
C542        H546   1.083       .  S
H544       C1177   1.083       .  S
C547        S553   1.702       .  A
C547        C552   1.387       .  A
C547        C548   1.400       .  A
C548        C549   1.399       .  A
C548        H559   1.083       .  S
C549        C558   1.369       .  A
C549        C550   1.387       .  A
C550        S556   1.708       .  A
C550        C551   1.404       .  A
C551        C552   1.405       .  A
C551        H560   1.083       .  S
C552        C555   1.375       .  A
S553        C554   1.724       .  A
C554        C555   1.388       .  A
C555        H561   1.083       .  S
S556        C557   1.725       .  A
C557        C558   1.385       .  A
C558        H562   1.083       .  S
C563        S569   1.709       .  A
C563        C568   1.387       .  A
C563        C564   1.404       .  A
C564        C565   1.405       .  A
C564        H575   1.083       .  S
C565        C574   1.376       .  A
C565        C566   1.387       .  A
C566        S572   1.705       .  A
C566        C567   1.401       .  A
C567        C568   1.401       .  A
C567        H576   1.083       .  S
C568        C571   1.371       .  A
S569        C570   1.725       .  A
C570        C571   1.386       .  A
C571        H577   1.083       .  S
S572        C573   1.724       .  A
C573        C574   1.389       .  A
C574        H578   1.083       .  S
C579        S585   1.709       .  A
C579        C584   1.387       .  A
C579        C580   1.402       .  A
C580        C581   1.403       .  A
C580        H591   1.083       .  S
C581        C590   1.372       .  A
C581        C582   1.387       .  A
C582        S588   1.704       .  A
C582        C583   1.399       .  A
C583        C584   1.400       .  A
C583        H592   1.083       .  S
C584        C587   1.367       .  A
S585        C586   1.724       .  A
C586        C587   1.384       .  A
C587        H593   1.083       .  S
S588        C589   1.723       .  A
C589        C590   1.386       .  A
C590        H594   1.083       .  S
C595        S601   1.711       .  A
C595        C600   1.386       .  A
C595        C596   1.404       .  A
C596        C597   1.405       .  A
C596        H607   1.083       .  S
C597        C606   1.374       .  A
C597        C598   1.387       .  A
C598        S604   1.708       .  A
C598        C599   1.401       .  A
C599        C600   1.402       .  A
C599        H608   1.083       .  S
C600        C603   1.370       .  A
S601        C602   1.725       .  A
C602        C603   1.387       .  A
C603        H609   1.083       .  S
S604        C605   1.723       .  A
C605        C606   1.389       .  A
C606        H610   1.083       .  S
C611        S617   1.707       .  A
C611        C616   1.387       .  A
C611        C612   1.403       .  A
C612        C613   1.403       .  A
C612        H623   1.083       .  S
C613        C622   1.375       .  A
C613        C614   1.387       .  A
C614        S620   1.705       .  A
C614        C615   1.403       .  A
C615        C616   1.403       .  A
C615       H1266   1.083   1_554  S
C616       C1261   1.373   1_554  A
S617       C1260   1.724       .  A
C618       S1259   1.725       .  A
C618        C619   1.388       .  A
C619       C1258   1.372       .  A
C619        H625   1.083       .  S
S620        C621   1.726       .  A
C621        C622   1.387       .  A
C622        H626   1.083       .  S
H624       C1257   1.083       .  S
C627        S633   1.708       .  A
C627        C632   1.387       .  A
C627        C628   1.403       .  A
C628        C629   1.404       .  A
C628        H639   1.083       .  S
C629        C638   1.373   1_554  A
C629        C630   1.387       .  A
C630       S1278   1.705       .  A
C630        C631   1.400       .  A
C631        C632   1.400       .  A
C631        H640   1.083       .  S
C632        C635   1.368       .  A
S633        C634   1.723       .  A
C634        C635   1.384       .  A
C635        H641   1.083       .  S
S636        C637   1.724       .  A
S636       C1272   1.705       .  A
C637       C1280   1.385       .  A
C638       C1279   1.389   1_556  A
C638        H642   1.083       .  S
C643        N644   1.362       .  A
C643        N648   1.359       .  A
C643       C1263   1.475       .  S
N644        C645   1.362       .  A
C645        N646   1.356       .  A
C645        C651   1.471       .  S
N646        C647   1.355       .  A
C647        N648   1.357       .  A
C647       C1276   1.468       .  S
C649        N650   1.359       .  A
C649        N654   1.360       .  A
C649       C1228   1.474       .  S
N650        C651   1.357       .  A
C651        N652   1.360       .  A
N652        C653   1.358       .  A
C653        N654   1.360       .  A
C653       C1244   1.477       .  S
C655        N656   1.359       .  A
C655        N660   1.362       .  A
C655       C1215   1.472       .  S
N656        C657   1.355       .  A
C657        N658   1.352       .  A
C657        C663   1.466       .  S
N658        C659   1.355       .  A
C659        N660   1.362       .  A
C659       C1196   1.469       .  S
C661        N662   1.358       .  A
C661        N666   1.364       .  A
C661       C1180   1.473       .  S
N662        C663   1.354       .  A
C663        N664   1.356       .  A
N664        C665   1.357       .  A
C665        N666   1.364       .  A
C665       C1164   1.476       .  S
C667        N668   1.355       .  A
C667        N672   1.358       .  A
C667       C1148   1.471       .  S
N668        C669   1.355       .  A
C669        N670   1.360       .  A
C669        C675   1.472       .  S
N670        C671   1.363       .  A
C671        N672   1.360       .  A
C671       C1135   1.474       .  S
C673        N674   1.357       .  A
C673        N678   1.360       .  A
C673       C1119   1.477       .  S
N674        C675   1.358       .  A
C675        N676   1.358       .  A
N676        C677   1.362       .  A
C677        N678   1.362       .  A
C677       C1103   1.474       .  S
C679        N680   1.359       .  A
C679        N684   1.362       .  A
C679       C1084   1.474       .  S
N680        C681   1.359       .  A
C681        N682   1.361       .  A
C681        C689   1.475       .  S
N682        C683   1.360       .  A
C683        N684   1.360       .  A
C683       C1068   1.480       .  S
C685        N686   1.356       .  A
C685        N690   1.363       .  A
C685       C1052   1.477       .  S
N686        C687   1.355       .  A
C687        N688   1.358       .  A
C687       C1039   1.466       .  S
N688        C689   1.359       .  A
C689        N690   1.364       .  A
C691        N692   1.353       .  A
C691        N696   1.360       .  A
C691       C1007   1.471       .  S
N692        C693   1.354       .  A
C693        N694   1.357       .  A
C693        C701   1.468       .  S
N694        C695   1.362       .  A
C695        N696   1.364       .  A
C695       C1023   1.471       .  S
C697        N698   1.358       .  A
C697        N702   1.353       .  A
C697        C975   1.466       .  S
N698        C699   1.360       .  A
C699        N700   1.363       .  A
C699        C988   1.471       .  S
N700        C701   1.358       .  A
C701        N702   1.354       .  A
C703        N704   1.358       .  A
C703        N708   1.352       .  A
C703        C956   1.466       .  S
N704        C705   1.360       .  A
C705        N706   1.360       .  A
C705        C940   1.467       .  S
N706        C707   1.358       .  A
C707        N708   1.353       .  A
C707        C711   1.460       .  S
C709        N710   1.354       .  A
C709        N714   1.357       .  A
C709        C927   1.466       .  S
N710        C711   1.356       .  A
C711        N712   1.356       .  A
N712        C713   1.358       .  A
C713        N714   1.358       .  A
C713        C908   1.466       .  S
O715       Zr727   2.452       .  S
O715        C717   1.289       .  A
O716       Zr753   2.424       .  S
O716        C717   1.287       .  A
C717       C1260   1.475   1_556  S
O718       Zr730   2.461       .  S
O718        C720   1.292       .  A
O719       Zr754   2.402       .  S
O719        C720   1.282       .  A
C720        C972   1.472       .  S
O721       Zr730   2.445       .  S
O721        C723   1.289       .  A
O722       Zr753   2.438       .  S
O722        C723   1.289       .  A
C723       C1231   1.476       .  S
O724       Zr727   2.456       .  S
O724        C726   1.291       .  A
O725       Zr754   2.416       .  S
O725        C726   1.284       .  A
C726       C1004   1.472       .  S
Zr727       O728   2.435       .  S
Zr727       O733   2.378       .  S
Zr727       O734   2.371       .  S
Zr727       O757   2.374       .  S
Zr727       O759   2.372       .  S
O728        H771   0.990       .  S
O729        H770   0.990       .  S
O729        H774   0.990       .  S
Zr730       O731   2.435       .  S
Zr730       O732   2.434       .  S
Zr730       O734   2.365       .  S
Zr730       O733   2.382       .  S
Zr730       O758   2.371       .  S
Zr730       O760   2.368       .  S
O731        H772   0.990       .  S
O731        H775   0.990       .  S
O732        H765   0.990       .  S
O733       Zr753   2.389       .  S
O734       Zr754   2.380       .  S
O734        H761   0.966       .  S
O735       Zr747   2.438       .  S
O735        C737   1.286       .  A
O736       Zr754   2.408       .  S
O736        C737   1.284       .  A
C737        C911   1.466   1_556  S
O738       Zr750   2.447       .  S
O738        C740   1.289       .  A
O739       Zr753   2.425       .  S
O739        C740   1.286       .  A
C740       C1100   1.473       .  S
O741       Zr750   2.448       .  S
O741        C743   1.288       .  A
O742       Zr754   2.417       .  S
O742        C743   1.285       .  A
C743        C943   1.473       .  S
O744       Zr747   2.430       .  S
O744        C746   1.285       .  A
O745       Zr753   2.443       .  S
O745        C746   1.290       .  A
C746       C1132   1.473   1_556  S
Zr747       O748   2.434       .  S
Zr747       O755   2.369       .  S
Zr747       O756   2.380       .  S
Zr747       O759   2.370       .  S
Zr747       O757   2.370       .  S
O748        H768   0.990       .  S
O748        H773   0.990       .  S
O749        H769   0.990       .  S
Zr750       O751   2.435       .  S
Zr750       O752   2.436       .  S
Zr750       O756   2.379       .  S
Zr750       O755   2.376       .  S
Zr750       O760   2.371       .  S
Zr750       O758   2.368       .  S
O751        H767   0.990       .  S
O752        H766   0.990       .  S
O752        H776   0.990       .  S
Zr753       O756   2.389       .  S
Zr753       O758   2.388       .  S
Zr753       O759   2.389       .  S
Zr754       O755   2.382       .  S
Zr754       O757   2.378       .  S
Zr754       O760   2.377       .  S
O755        H763   0.966       .  S
O758        H762   0.966       .  S
O759        H764   0.965       .  S
O777       Zr789   2.447   1_455  S
O777        C779   1.289       .  A
O778       Zr815   2.415       .  S
O778        C779   1.284       .  A
C779       C1199   1.471       .  S
O780       Zr792   2.449       .  S
O780        C782   1.289       .  A
O781       Zr816   2.427       .  S
O781        C782   1.287       .  A
C782       C1020   1.476       .  S
O783       Zr792   2.443   1_455  S
O783        C785   1.288       .  A
O784       Zr815   2.420       .  S
O784        C785   1.285       .  A
C785       C1167   1.467       .  S
O786       Zr789   2.431       .  S
O786        C788   1.286       .  A
O787       Zr816   2.427       .  S
O787        C788   1.287       .  A
C788        C991   1.468       .  S
Zr789       O790   2.435       .  S
Zr789       O791   2.437       .  S
Zr789       O795   2.366   1_655  S
Zr789       O796   2.374       .  S
Zr789       O819   2.377       .  S
Zr789       O821   2.365   1_655  S
O790        H833   0.990       .  S
O791        H832   0.990       .  S
O791        H836   0.990   1_655  S
Zr792       O793   2.437       .  S
Zr792       O796   2.374       .  S
Zr792       O795   2.375   1_655  S
Zr792       O820   2.376   1_655  S
Zr792       O822   2.367       .  S
O793        H834   0.990       .  S
O793        H837   0.990       .  S
O794        H827   0.990       .  S
O795       Zr815   2.373       .  S
O796       Zr816   2.383       .  S
O796        H823   0.966       .  S
O797       Zr809   2.457       .  S
O797        C799   1.290       .  A
O798       Zr816   2.421       .  S
O798        C799   1.286       .  A
C799       C1087   1.478       .  S
O800       Zr812   2.450   1_455  S
O800        C802   1.289       .  A
O801       Zr815   2.407       .  S
O801        C802   1.283       .  A
C802       C1151   1.466       .  S
O803       Zr812   2.441       .  S
O803        C805   1.288       .  A
O804       Zr816   2.436       .  S
O804        C805   1.289       .  A
C805       C1055   1.476   1_556  S
O806       Zr809   2.465   1_455  S
O806        C808   1.292       .  A
O807       Zr815   2.416       .  S
O807        C808   1.285       .  A
C808       C1116   1.478       .  S
Zr809       O810   2.436       .  S
Zr809       O811   2.432       .  S
Zr809       O817   2.382       .  S
Zr809       O818   2.374   1_655  S
Zr809       O821   2.377   1_655  S
Zr809       O819   2.376       .  S
O810        H830   0.990       .  S
O810        H835   0.990       .  S
O811        H831   0.989       .  S
Zr812       O813   2.434       .  S
Zr812       O818   2.373   1_655  S
Zr812       O817   2.375       .  S
Zr812       O822   2.373       .  S
Zr812       O820   2.370   1_655  S
O813        H829   0.990   1_556  S
O814        H828   0.990       .  S
O814        H838   0.990       .  S
Zr815       O818   2.380       .  S
Zr815       O820   2.383       .  S
Zr815       O821   2.381       .  S
Zr816       O817   2.388       .  S
Zr816       O819   2.387       .  S
Zr816       O822   2.380       .  S
O817        H825   0.966       .  S
O820        H824   0.966       .  S
O821        H826   0.966       .  S
O839       Zr851   2.449       .  S
O839        C841   1.289       .  A
O840       Zr877   2.429       .  S
O840        C841   1.287       .  A
C841       C1247   1.476       .  S
O842       Zr854   2.446   1_545  S
O842        C844   1.289       .  A
O843       Zr878   2.422       .  S
O843        C844   1.286       .  A
C844       C1036   1.475   1_556  S
O845       Zr854   2.450       .  S
O845        C847   1.289       .  A
O846       Zr877   2.429       .  S
O846        C847   1.287       .  A
C847       C1279   1.477   1_556  S
O848       Zr851   2.461   1_545  S
O848        C850   1.291       .  A
O849       Zr878   2.427       .  S
O849        C850   1.286       .  A
C850       C1071   1.481       .  S
Zr851       O852   2.434       .  S
Zr851       O853   2.437       .  S
Zr851       O857   2.384       .  S
Zr851       O858   2.378   1_565  S
Zr851       O881   2.369   1_565  S
Zr851       O883   2.372       .  S
O852        H895   0.990       .  S
O853        H894   0.990       .  S
O853        H898   0.990   1_565  S
Zr854       O855   2.434       .  S
Zr854       O858   2.383   1_565  S
Zr854       O857   2.377       .  S
Zr854       O882   2.369       .  S
Zr854       O884   2.369   1_565  S
O855        H896   0.990       .  S
O855        H899   0.990       .  S
O856        H889   0.990       .  S
O857       Zr877   2.380       .  S
O858       Zr878   2.384       .  S
O858        H885   0.966       .  S
O859       Zr871   2.451   1_545  S
O859        C861   1.289       .  A
O860       Zr878   2.415       .  S
O860        C861   1.284       .  A
C861        C959   1.465       .  S
O862       Zr874   2.445       .  S
O862        C864   1.289       .  A
O863       Zr877   2.418       .  S
O863        C864   1.285       .  A
C864       C1183   1.471       .  S
O865       Zr874   2.441   1_545  S
O865        C867   1.287       .  A
O866       Zr878   2.412       .  S
O866        C867   1.285       .  A
C867        C924   1.466   1_556  S
O868       Zr871   2.446       .  S
O868        C870   1.289       .  A
O869       Zr877   2.412       .  S
O869        C870   1.284       .  A
C870       C1212   1.467       .  S
Zr871       O872   2.436       .  S
Zr871       O873   2.434       .  S
Zr871       O879   2.374   1_565  S
Zr871       O880   2.371       .  S
Zr871       O883   2.380       .  S
Zr871       O881   2.371   1_565  S
O872        H892   0.990   1_565  S
O872        H897   0.990       .  S
O873        H893   0.990       .  S
Zr874       O875   2.434       .  S
Zr874       O880   2.369       .  S
Zr874       O879   2.374   1_565  S
Zr874       O884   2.372   1_565  S
Zr874       O882   2.363       .  S
O875        H891   0.990       .  S
O876        H890   0.990   1_565  S
O876        H900   0.990       .  S
Zr877       O880   2.383       .  S
Zr877       O882   2.380       .  S
Zr877       O883   2.388       .  S
Zr878       O879   2.389       .  S
Zr878       O881   2.378       .  S
Zr878       O884   2.379       .  S
O879        H887   0.966       .  S
O882        H886   0.966       .  S
O883        H888   0.966       .  S
C901        S907   1.705       .  A
C901        C906   1.387       .  A
C902        H913   1.083   1_554  S
C903        C904   1.387       .  A
C904        S910   1.707       .  A
C904        C905   1.401       .  A
C905        C906   1.401       .  A
C905        H914   1.083       .  S
C906        C909   1.368       .  A
S907        C908   1.721       .  A
C908        C909   1.385       .  A
C909        H915   1.083       .  S
C911        C912   1.385   1_554  A
C912        H916   1.083       .  S
C917        S923   1.705       .  A
C917        C922   1.387       .  A
C917        C918   1.400       .  A
C918        C919   1.401       .  A
C918        H929   1.083       .  S
C919        C928   1.367       .  A
C919        C920   1.387       .  A
C920        S926   1.704       .  A
C920        C921   1.398       .  A
C921        C922   1.399       .  A
C924        C925   1.385   1_554  A
C925        H931   1.083       .  S
S926        C927   1.720       .  A
C927        C928   1.386       .  A
C928        H932   1.083       .  S
C933        S939   1.705       .  A
C933        C938   1.387       .  A
C933        C934   1.400       .  A
C934        C935   1.401       .  A
C934        H945   1.083       .  S
C935        C944   1.369       .  A
C935        C936   1.387       .  A
C936        S942   1.707       .  A
C936        C937   1.402       .  A
C937        C938   1.402       .  A
C937        H946   1.083       .  S
C938        C941   1.370       .  A
S939        C940   1.721       .  A
C940        C941   1.386       .  A
C941        H947   1.083       .  S
S942        C943   1.724       .  A
C943        C944   1.387       .  A
C944        H948   1.083       .  S
C949        S955   1.702       .  A
C949        C954   1.387       .  A
C949        C950   1.400       .  A
C950        C951   1.400       .  A
C950        H961   1.083       .  S
C951        C960   1.369       .  A
C951        C952   1.388       .  A
C952        S958   1.705       .  A
C952        C953   1.400       .  A
C953        C954   1.400       .  A
C953        H962   1.083       .  S
C954        C957   1.368       .  A
S955        C956   1.723       .  A
C956        C957   1.384       .  A
C957        H963   1.083       .  S
S958        C959   1.722       .  A
C959        C960   1.384       .  A
C960        H964   1.083       .  S
C965        S971   1.706       .  A
C965        C970   1.387       .  A
C965        C966   1.403       .  A
C966        C967   1.403       .  A
C966        H977   1.083       .  S
C967        C976   1.371       .  A
C967        C968   1.388       .  A
C968        S974   1.702       .  A
C968        C969   1.399       .  A
C969        C970   1.399       .  A
C969        H978   1.083       .  S
C970        C973   1.369       .  A
S971        C972   1.727       .  A
C972        C973   1.384       .  A
C973        H979   1.083       .  S
S974        C975   1.721       .  A
C975        C976   1.385       .  A
C976        H980   1.083       .  S
C981        S987   1.707       .  A
C981        C986   1.387       .  A
C981        C982   1.402       .  A
C982        C983   1.403       .  A
C982        H993   1.083       .  S
C983        C992   1.370       .  A
C983        C984   1.387       .  A
C984        S990   1.703       .  A
C984        C985   1.399       .  A
C985        C986   1.400       .  A
C985        H994   1.083       .  S
C986        C989   1.368       .  A
S987        C988   1.724       .  A
C988        C989   1.385       .  A
C989        H995   1.083       .  S
S990        C991   1.722       .  A
C991        C992   1.386       .  A
C992        H996   1.083       .  S
C997       C1002   1.387       .  A
C997        C998   1.405       .  A
C998        C999   1.404       .  A
C998       H1009   1.083       .  S
C999       C1008   1.375       .  A
C999       C1000   1.387       .  A
C1000      S1006   1.701       .  A
C1000      C1001   1.399       .  A
C1001      C1002   1.399       .  A
C1001      H1010   1.083       .  S
C1002      C1005   1.370       .  A
S1003      C1004   1.726       .  A
C1005      H1011   1.083       .  S
S1006      C1007   1.723       .  A
C1007      C1008   1.387       .  A
C1008      H1012   1.083       .  S
C1013      C1018   1.387       .  A
C1013      C1014   1.403       .  A
C1014      C1015   1.403       .  A
C1015      C1024   1.372       .  A
C1015      C1016   1.387       .  A
C1016      S1022   1.706       .  A
C1016      C1017   1.402       .  A
C1017      C1018   1.402       .  A
C1017      H1026   1.083       .  S
C1018      C1021   1.371       .  A
S1019      C1020   1.725       .  A
C1021      H1027   1.083       .  S
S1022      C1023   1.723       .  A
C1023      C1024   1.386       .  A
C1024      H1028   1.083       .  S
C1029      S1035   1.706       .  A
C1029      C1034   1.387       .  A
C1029      C1030   1.401       .  A
C1030      C1031   1.402       .  A
C1030      H1041   1.083       .  S
C1031      C1040   1.370       .  A
C1031      C1032   1.388       .  A
C1032      S1038   1.704       .  A
C1032      C1033   1.399       .  A
C1033      C1034   1.400       .  A
C1033      H1042   1.083       .  S
C1036      C1037   1.388   1_554  A
C1037      H1043   1.083       .  S
S1038      C1039   1.721       .  A
C1039      C1040   1.385       .  A
C1040      H1044   1.083       .  S
C1045      S1051   1.707       .  A
C1045      C1050   1.387       .  A
C1046      H1057   1.083   1_554  S
C1047      C1048   1.387       .  A
C1048      S1054   1.706       .  A
C1048      C1049   1.402       .  A
C1049      C1050   1.402       .  A
C1049      H1058   1.083       .  S
C1050      C1053   1.374       .  A
S1051      C1052   1.727       .  A
C1052      C1053   1.386       .  A
C1053      H1059   1.083       .  S
C1055      C1056   1.388   1_554  A
C1056      H1060   1.083       .  S
C1061      S1067   1.714       .  A
C1061      C1066   1.386       .  A
C1061      C1062   1.407       .  A
C1062      C1063   1.408       .  A
C1062      H1073   1.083       .  S
C1063      C1072   1.376       .  A
C1063      C1064   1.386       .  A
C1064      S1070   1.710       .  A
C1064      C1065   1.403       .  A
C1065      C1066   1.403       .  A
C1065      H1074   1.083       .  S
C1066      C1069   1.373       .  A
S1067      C1068   1.727       .  A
C1068      C1069   1.387       .  A
C1069      H1075   1.083       .  S
S1070      C1071   1.724       .  A
C1071      C1072   1.391       .  A
C1072      H1076   1.083       .  S
C1077      S1083   1.713       .  A
C1077      C1082   1.387       .  A
C1077      C1078   1.406       .  A
C1078      C1079   1.407       .  A
C1078      H1089   1.083       .  S
C1079      C1088   1.376       .  A
C1079      C1080   1.387       .  A
C1080      S1086   1.705       .  A
C1080      C1081   1.399       .  A
C1081      C1082   1.400       .  A
C1081      H1090   1.083       .  S
C1082      C1085   1.369       .  A
S1083      C1084   1.727       .  A
C1084      C1085   1.384       .  A
C1085      H1091   1.083       .  S
S1086      C1087   1.723       .  A
C1087      C1088   1.391       .  A
C1088      H1092   1.083       .  S
C1093      S1099   1.705       .  A
C1093      C1098   1.387       .  A
C1093      C1094   1.400       .  A
C1094      C1095   1.401       .  A
C1094      H1105   1.083       .  S
C1095      C1104   1.369       .  A
C1095      C1096   1.387       .  A
C1096      S1102   1.710       .  A
C1096      C1097   1.404       .  A
C1097      C1098   1.404       .  A
C1097      H1106   1.083       .  S
C1098      C1101   1.373       .  A
S1099      C1100   1.723       .  A
C1100      C1101   1.388       .  A
C1101      H1107   1.083       .  S
S1102      C1103   1.725       .  A
C1103      C1104   1.386       .  A
C1104      H1108   1.083       .  S
C1109      S1115   1.707       .  A
C1109      C1114   1.387       .  A
C1109      C1110   1.404       .  A
C1110      C1111   1.404       .  A
C1110      H1121   1.083       .  S
C1111      C1120   1.375       .  A
C1111      C1112   1.387       .  A
C1112      S1118   1.707       .  A
C1112      C1113   1.404       .  A
C1113      C1114   1.403       .  A
C1113      H1122   1.083       .  S
C1114      C1117   1.375       .  A
S1115      C1116   1.726       .  A
C1116      C1117   1.388       .  A
C1117      H1123   1.083       .  S
S1118      C1119   1.725       .  A
C1119      C1120   1.388       .  A
C1120      H1124   1.083       .  S
C1125      S1131   1.704       .  A
C1125      C1130   1.387       .  A
C1125      C1126   1.400       .  A
C1126      C1127   1.401       .  A
C1126      H1137   1.083       .  S
C1127      C1136   1.371       .  A
C1127      C1128   1.387       .  A
C1128      S1134   1.709       .  A
C1129      H1138   1.083   1_554  S
C1132      C1133   1.385   1_554  A
C1133      H1139   1.083       .  S
S1134      C1135   1.726       .  A
C1135      C1136   1.385       .  A
C1136      H1140   1.083       .  S
C1141      S1147   1.701       .  A
C1141      C1146   1.387       .  A
C1141      C1142   1.399       .  A
C1142      C1143   1.399       .  A
C1142      H1153   1.083       .  S
C1143      C1152   1.369       .  A
C1143      C1144   1.388       .  A
C1144      C1145   1.403       .  A
C1145      C1146   1.403       .  A
C1146      C1149   1.373       .  A
S1147      C1148   1.722       .  A
C1148      C1149   1.387       .  A
C1149      H1155   1.083       .  S
S1150      C1151   1.723       .  A
C1152      H1156   1.083       .  S
C1157      S1163   1.705       .  A
C1157      C1162   1.387       .  A
C1157      C1158   1.402       .  A
C1158      C1159   1.402       .  A
C1158      H1169   1.083       .  S
C1159      C1168   1.372       .  A
C1159      C1160   1.387       .  A
C1160      C1161   1.403       .  A
C1161      C1162   1.403       .  A
C1162      C1165   1.374       .  A
S1163      C1164   1.726       .  A
C1164      C1165   1.387       .  A
C1165      H1171   1.083       .  S
S1166      C1167   1.723       .  A
C1168      H1172   1.083       .  S
C1173      S1179   1.704       .  A
C1173      C1178   1.387       .  A
C1173      C1174   1.400       .  A
C1174      C1175   1.401       .  A
C1174      H1185   1.083       .  S
C1175      C1184   1.371       .  A
C1175      C1176   1.386       .  A
C1176      C1177   1.406       .  A
C1177      C1178   1.406       .  A
C1178      C1181   1.375       .  A
S1179      C1180   1.723       .  A
C1180      C1181   1.388       .  A
C1181      H1187   1.083       .  S
S1182      C1183   1.725       .  A
C1184      H1188   1.083       .  S
C1189      S1195   1.700       .  A
C1189      C1194   1.387       .  A
C1189      C1190   1.398       .  A
C1190      C1191   1.399       .  A
C1190      H1201   1.083       .  S
C1191      C1200   1.368       .  A
C1191      C1192   1.387       .  A
C1192      S1198   1.708       .  A
C1192      C1193   1.403       .  A
C1193      C1194   1.403       .  A
C1193      H1202   1.083       .  S
C1194      C1197   1.373       .  A
S1195      C1196   1.723       .  A
C1196      C1197   1.386       .  A
C1197      H1203   1.083       .  S
S1198      C1199   1.725       .  A
C1199      C1200   1.384       .  A
C1200      H1204   1.083       .  S
C1205      S1211   1.708       .  A
C1205      C1210   1.387       .  A
C1205      C1206   1.404       .  A
C1206      C1207   1.404       .  A
C1206      H1217   1.083       .  S
C1207      C1216   1.374       .  A
C1207      C1208   1.387       .  A
C1208      S1214   1.701       .  A
C1208      C1209   1.398       .  A
C1209      C1210   1.398       .  A
C1209      H1218   1.083       .  S
C1210      C1213   1.367       .  A
S1211      C1212   1.724       .  A
C1212      C1213   1.383       .  A
C1213      H1219   1.083       .  S
S1214      C1215   1.722       .  A
C1215      C1216   1.388       .  A
C1216      H1220   1.083       .  S
C1221      S1227   1.710       .  A
C1221      C1226   1.387       .  A
C1221      C1222   1.404       .  A
C1222      C1223   1.405       .  A
C1222      H1233   1.083       .  S
C1223      C1232   1.375       .  A
C1223      C1224   1.387       .  A
C1224      S1230   1.706       .  A
C1224      C1225   1.402       .  A
C1225      C1226   1.402       .  A
C1225      H1234   1.083       .  S
C1226      C1229   1.371       .  A
S1227      C1228   1.724       .  A
C1228      C1229   1.387       .  A
C1229      H1235   1.083       .  S
S1230      C1231   1.724       .  A
C1231      C1232   1.389       .  A
C1232      H1236   1.083       .  S
C1237      S1243   1.711       .  A
C1237      C1242   1.387       .  A
C1237      C1238   1.405       .  A
C1238      C1239   1.406       .  A
C1238      H1249   1.083       .  S
C1239      C1248   1.374       .  A
C1239      C1240   1.387       .  A
C1240      S1246   1.708       .  A
C1240      C1241   1.401       .  A
C1241      C1242   1.402       .  A
C1241      H1250   1.083       .  S
C1242      C1245   1.371       .  A
S1243      C1244   1.726       .  A
C1244      C1245   1.386       .  A
C1245      H1251   1.083       .  S
S1246      C1247   1.723       .  A
C1247      C1248   1.389       .  A
C1248      H1252   1.083       .  S
C1253      S1259   1.708       .  A
C1253      C1258   1.387       .  A
C1253      C1254   1.404       .  A
C1254      C1255   1.404       .  A
C1254      H1265   1.083       .  S
C1255      C1264   1.374       .  A
C1255      C1256   1.387       .  A
C1256      S1262   1.706       .  A
C1256      C1257   1.402       .  A
C1257      C1258   1.402       .  A
C1260      C1261   1.388   1_554  A
C1261      H1267   1.083       .  S
S1262      C1263   1.724       .  A
C1263      C1264   1.388       .  A
C1264      H1268   1.083       .  S
C1269      S1275   1.708       .  A
C1269      C1274   1.387       .  A
C1269      C1270   1.400       .  A
C1270      C1271   1.401       .  A
C1270      H1281   1.083       .  S
C1271      C1280   1.368       .  A
C1271      C1272   1.387       .  A
C1272      C1273   1.399       .  A
C1273      C1274   1.401       .  A
C1273      H1282   1.083       .  S
C1274      C1277   1.366       .  A
S1275      C1276   1.722       .  A
C1276      C1277   1.385       .  A
C1277      H1283   1.083       .  S
S1278      C1279   1.724       .  A
C1280      H1284   1.083       .  S
