geometry optimzed in LAMMPS
_audit_creation_date              2020-11-30 
_audit_creation_method            'lammps2cif' 
_symmetry_space_group_name_H-M    'P1' 
_symmetry_Int_Tables_number       1 
_symmetry_cell_setting            triclinic 
loop_ 
_symmetry_equiv_pos_as_xyz 
  x,y,z 
_cell_length_a                    29.637900612893695 
_cell_length_b                    30.234888516449317 
_cell_length_c                    31.403415031879234 
_cell_angle_alpha                 90.10719912464941 
_cell_angle_beta                  90.34003415726895 
_cell_angle_gamma                 89.94142510261199 
loop_ 
_atom_site_label 
_atom_site_type_symbol 
_atom_site_fract_x 
_atom_site_fract_y 
_atom_site_fract_z 
_atom_site_charge 
N1          N  0.19360891  0.33320418  0.20651580    -0.06170
N2          N  0.18566664  0.36252699  0.17638837    -0.58290
N3          N  0.16589072  0.30080207  0.30445030    -0.05850
N4          N  0.13658055  0.30893077  0.33496124    -0.60420
N5          N  0.19763596  0.33105331  0.30418750    -0.05450
N6          N  0.19047583  0.36046375  0.33439916    -0.58270
N7          N  0.16195721  0.30275509  0.20659538    -0.05130
N8          N  0.13172432  0.31083964  0.17649651    -0.60770
C9          C  0.14742855  0.34781311  0.15743724     0.96000
C10         C  0.15242340  0.34617502  0.35361960     0.95780
N11         N  0.19679938  0.16660970  0.30134572    -0.06360
N12         N  0.18952128  0.13660314  0.33103167    -0.58870
N13         N  0.16092746  0.19887539  0.20530844    -0.04480
N14         N  0.12998108  0.19231038  0.17559703    -0.60120
N15         N  0.19247014  0.16835508  0.20325406    -0.06390
N16         N  0.18399196  0.14060081  0.17175593    -0.59140
N17         N  0.16579738  0.19771023  0.30304674    -0.04120
N18         N  0.13712984  0.18984551  0.33413583    -0.60210
Mn19       Mn  0.16228065  0.25001603  0.25484047     1.18440
C20         C  0.15278488  0.15205346  0.35172452     0.98090
C21         C  0.14518066  0.15623557  0.15463596     0.98750
N22         N  0.30380116  0.32993626  0.30103768    -0.06410
N23         N  0.31212153  0.35672544  0.33343211    -0.62720
N24         N  0.33039608  0.30342383  0.20016788    -0.05210
N25         N  0.35968900  0.31401223  0.17037530    -0.63390
N26         N  0.29908333  0.33410338  0.20299444    -0.05910
N27         N  0.30625334  0.36581605  0.17499928    -0.62980
N28         N  0.33566667  0.29977171  0.29794174    -0.04810
N29         N  0.36647572  0.30561536  0.32797185    -0.63670
Mn30       Mn  0.24853902  0.33335075  0.25384124     1.10660
C31         C  0.35103470  0.34081925  0.35022904     0.99310
C32         C  0.34408279  0.35292936  0.15462176     0.99390
N33         N  0.29821619  0.16677198  0.19928461    -0.05920
N34         N  0.30532807  0.13553325  0.17075811    -0.61290
N35         N  0.33580800  0.19594533  0.29484315    -0.05240
N36         N  0.36793222  0.18663015  0.32278846    -0.58020
N37         N  0.30358484  0.16612882  0.29640257    -0.06550
N38         N  0.31309622  0.13604088  0.32538946    -0.60860
N39         N  0.32980031  0.19727155  0.19723286    -0.05540
N40         N  0.35902268  0.18715345  0.16701395    -0.58050
Mn41       Mn  0.24767321  0.16575361  0.25019128     1.20190
Mn42       Mn  0.33434968  0.24920948  0.24712010     1.10090
Cl43       Cl  0.24834941  0.24954520  0.25136368    -0.86020
C44         C  0.34316145  0.14855185  0.15066299     0.96320
C45         C  0.35309802  0.14936409  0.34197296     0.96110
C46         C  0.45297350  0.45548858  0.46696572    -0.02540
C47         C  0.45098374  0.03782377  0.46385179    -0.02540
C48         C  0.05153724  0.45933544  0.47081765    -0.02540
C49         C  0.04809674  0.04124166  0.46728721    -0.02540
C50         C  0.47793303  0.99665501  0.44887330     0.00510
C51         C  0.02491898  0.99835631  0.45074955     0.00510
C52         C  0.45077067  0.45864763  0.03375938    -0.02540
C53         C  0.04958053  0.46145194  0.03711498    -0.02540
C54         C  0.02397101  0.43532510  0.00373157     0.00510
C55         C  0.47916229  0.43338197  0.00219368     0.00510
C56         C  0.04641019  0.04370434  0.03454716    -0.02540
C57         C  0.47482863  0.00098792  0.05060073     0.00510
C58         C  0.02196630  0.00224179  0.05256619     0.00510
C59         C  0.07794137  0.02394167  0.00229539     0.00510
C60         C  0.07972774  0.48074816  0.00434781     0.00510
C61         C  0.47577963  0.06401662  0.99745697     0.00510
C62         C  0.02005254  0.06582553  0.99929838     0.00510
C63         C  0.44873449  0.04110063  0.03075418    -0.02540
C64         C  0.42162521  0.47646727  0.99859686     0.00510
C65         C  0.41987466  0.01979177  0.99701676     0.00530
C66         C  0.42190802  0.37535896  0.37357461    -0.12320
C67         C  0.37758683  0.36397414  0.38335206     0.04690
C68         C  0.35854500  0.37958229  0.42151851    -0.07610
C69         C  0.38472308  0.40644962  0.44862616    -0.08350
C70         C  0.42805946  0.42236890  0.43702323    -0.02900
C71         C  0.44650474  0.40557881  0.39847042     0.03910
N72         N  0.48564133  0.42415821  0.37939960     0.66420
H73         H  0.43586147  0.36449257  0.34346176     0.15320
H74         H  0.36978472  0.41600929  0.47857016     0.15030
N75         N  0.31292271  0.36890158  0.43328884     0.74130
O76         O  0.51326431  0.39854233  0.36138914    -0.39330
O77         O  0.48180700  0.46267369  0.36484519    -0.39270
O78         O  0.29586687  0.33200830  0.42342779    -0.39970
O79         O  0.29034767  0.39535764  0.45592884    -0.40040
C80         C  0.44045522  0.11059183  0.42375276    -0.12320
C81         C  0.42750841  0.06602718  0.42963246     0.04690
C82         C  0.39146027  0.04976231  0.40439125    -0.07610
C83         C  0.36838082  0.07781235  0.37655389    -0.08350
C84         C  0.37940374  0.12260919  0.37289879    -0.02900
C85         C  0.41590656  0.13940923  0.39715183     0.03910
N86         N  0.42684776  0.18571679  0.39741877     0.66420
H87         H  0.46877722  0.12401974  0.44134304     0.15320
H88         H  0.34103496  0.06403850  0.35770620     0.15030
N89         N  0.37658581  0.00507232  0.40662955     0.74130
O90         O  0.39606344  0.21403580  0.40286557    -0.39330
O91         O  0.46749923  0.19784594  0.40040846    -0.39270
O92         O  0.34577607  0.99576627  0.43266625    -0.39970
O93         O  0.38112718  0.98107277  0.37400238    -0.40040
C94         C  0.06674998  0.38510637  0.43571688    -0.12320
C95         C  0.07996120  0.42953248  0.44184319     0.04690
C96         C  0.12043471  0.44385683  0.42189458    -0.07610
C97         C  0.14290086  0.41561357  0.39387089    -0.08350
C98         C  0.12793005  0.37251343  0.38590666    -0.02900
C99         C  0.09010038  0.35667658  0.40825606     0.03910
N100        N  0.07417573  0.31228533  0.40316782     0.66420
H101        H  0.03685329  0.37233532  0.45101113     0.15320
H102        H  0.17315146  0.42768911  0.37858714     0.15030
N103        N  0.14206550  0.48502456  0.43179060     0.74130
O104        O  0.07350804  0.28692723  0.43503739    -0.39330
O105        O  0.05129744  0.30218289  0.37055538    -0.39270
O106        O  0.16363646  0.48801574  0.46645171    -0.39970
O107        O  0.15429451  0.50938364  0.40140085    -0.40040
C108        C  0.41429287  0.36945629  0.11580699    -0.12320
C109        C  0.36928554  0.38040096  0.12349232     0.04690
C110        C  0.35038682  0.41667720  0.10134068    -0.07610
C111        C  0.37678711  0.44011291  0.07196931    -0.08350
C112        C  0.42297999  0.43037330  0.06526245    -0.02900
C113        C  0.44104444  0.39363138  0.08764236     0.03910
N114        N  0.48598057  0.37841449  0.08176384     0.66420
H115        H  0.42944426  0.34148264  0.13203246     0.15320
H116        H  0.36085987  0.46725908  0.05520175     0.15030
N117        N  0.30471654  0.43052131  0.10799219     0.74130
O118        O  0.51087886  0.37547581  0.11438287    -0.39330
O119        O  0.49346556  0.35276290  0.05083668    -0.39270
O120        O  0.29412567  0.44841290  0.14287481    -0.39970
O121        O  0.27856313  0.43479560  0.07639421    -0.40040
C122        C  0.09412188  0.11038459  0.45119533    -0.12320
C123        C  0.07241601  0.07198057  0.43559148     0.04690
C124        C  0.07471168  0.06405549  0.39116595    -0.07610
C125        C  0.10287136  0.08965405  0.36556771    -0.08350
C126        C  0.12666492  0.12560296  0.38205916    -0.02900
C127        C  0.12103117  0.13747673  0.42520465     0.03910
N128        N  0.14206531  0.17630282  0.44326987     0.66420
H129        H  0.08972739  0.11982846  0.48398373     0.15320
H130        H  0.10458337  0.08247966  0.33174565     0.15030
N131        N  0.04605477  0.03316601  0.37021985     0.74130
O132        O  0.12632455  0.19375276  0.47660889    -0.39330
O133        O  0.17779154  0.19196737  0.42767318    -0.39270
O134        O  0.00646162  0.04551539  0.36119465    -0.39970
O135        O  0.06369254  0.00236081  0.34879337    -0.40040
C136        C  0.08732927  0.38818877  0.05734662    -0.12320
C137        C  0.07698307  0.43253788  0.06856538     0.04690
C138        C  0.09432883  0.44812068  0.10791805    -0.07610
C139        C  0.11536245  0.41900383  0.13627021    -0.08350
C140        C  0.12183610  0.37446753  0.12633979    -0.02900
C141        C  0.10813019  0.35868645  0.08599371     0.03910
N142        N  0.11552478  0.31359314  0.07302377     0.66420
H143        H  0.07774062  0.37539955  0.02645995     0.15320
H144        H  0.12856764  0.43201669  0.16605130     0.15030
N145        N  0.09858316  0.49392624  0.11716833     0.74130
O146        O  0.10628345  0.28215039  0.09783145    -0.39330
O147        O  0.12432886  0.30487521  0.03461769    -0.39270
O148        O  0.07988048  0.50859874  0.15029743    -0.39970
O149        O  0.13425456  0.51247617  0.10481370    -0.40040
C150        C  0.39178190  0.14232818  0.08676325    -0.12320
C151        C  0.36740885  0.12124193  0.11880554     0.04690
C152        C  0.36983776  0.07473323  0.12191343    -0.07610
C153        C  0.39722529  0.05084661  0.09385287    -0.08350
C154        C  0.42148030  0.07122737  0.06099528    -0.02900
C155        C  0.41858890  0.11842121  0.05798037     0.03910
N156        N  0.44450067  0.14367052  0.02842220     0.66420
H157        H  0.39094373  0.17810917  0.08463667     0.15320
H158        H  0.40062642  0.01588752  0.09896777     0.15030
N159        N  0.34647243  0.05112773  0.15453974     0.74130
O160        O  0.42418799  0.16952923  0.00328035    -0.39330
O161        O  0.48568434  0.15057874  0.03642326    -0.39270
O162        O  0.30418130  0.04689742  0.15204903    -0.39970
O163        O  0.36840484  0.02661167  0.17974058    -0.40040
C164        C  0.11575672  0.08858552  0.05741553    -0.12320
C165        C  0.07050366  0.07575664  0.06579084     0.04690
C166        C  0.04983094  0.09410746  0.10277936    -0.07610
C167        C  0.07447874  0.12283192  0.12923199    -0.08350
C168        C  0.11951848  0.13302526  0.12129187    -0.02900
C169        C  0.14030054  0.11662965  0.08444306     0.03910
N170        N  0.18595143  0.12838915  0.07366259     0.66420
H171        H  0.13329263  0.07636590  0.02974379     0.15320
H172        H  0.05904411  0.13503427  0.15819835     0.15030
N173        N  0.00542689  0.08247456  0.11662707     0.74130
O174        O  0.20985331  0.10242560  0.05173384    -0.39330
O175        O  0.20095817  0.16650534  0.08208249    -0.39270
O176        O  0.99816042  0.04358256  0.12922456    -0.39970
O177        O  0.98043155  0.11282076  0.13093840    -0.40040
N178        N  0.19360891  0.33320418  0.70651579    -0.06170
N179        N  0.18566664  0.36252698  0.67638837    -0.58290
N180        N  0.16589072  0.30080208  0.80445030    -0.05850
N181        N  0.13658055  0.30893077  0.83496124    -0.60420
N182        N  0.19763595  0.33105331  0.80418749    -0.05450
N183        N  0.19047583  0.36046375  0.83439916    -0.58270
N184        N  0.16195721  0.30275509  0.70659537    -0.05130
N185        N  0.13172432  0.31083964  0.67649650    -0.60770
C186        C  0.14742856  0.34781311  0.65743723     0.96000
C187        C  0.15242341  0.34617502  0.85361961     0.95780
N188        N  0.19679937  0.16660970  0.80134572    -0.06360
N189        N  0.18952128  0.13660314  0.83103167    -0.58870
N190        N  0.16092746  0.19887539  0.70530844    -0.04480
N191        N  0.12998108  0.19231038  0.67559703    -0.60120
N192        N  0.19247014  0.16835508  0.70325406    -0.06390
N193        N  0.18399196  0.14060081  0.67175593    -0.59140
N194        N  0.16579737  0.19771023  0.80304674    -0.04120
N195        N  0.13712984  0.18984552  0.83413583    -0.60210
Mn196      Mn  0.16228065  0.25001604  0.75484047     1.18440
C197        C  0.15278488  0.15205346  0.85172452     0.98090
C198        C  0.14518066  0.15623556  0.65463595     0.98750
N199        N  0.30380116  0.32993626  0.80103768    -0.06410
N200        N  0.31212153  0.35672545  0.83343211    -0.62720
N201        N  0.33039608  0.30342383  0.70016788    -0.05210
N202        N  0.35968900  0.31401223  0.67037530    -0.63390
N203        N  0.29908333  0.33410338  0.70299443    -0.05910
N204        N  0.30625334  0.36581605  0.67499928    -0.62980
N205        N  0.33566667  0.29977171  0.79794174    -0.04810
N206        N  0.36647571  0.30561536  0.82797185    -0.63670
Mn207      Mn  0.24853901  0.33335075  0.75384123     1.10660
C208        C  0.35103469  0.34081925  0.85022905     0.99310
C209        C  0.34408280  0.35292936  0.65462176     0.99390
N210        N  0.29821619  0.16677198  0.69928462    -0.05920
N211        N  0.30532807  0.13553326  0.67075811    -0.61290
N212        N  0.33580799  0.19594534  0.79484315    -0.05240
N213        N  0.36793222  0.18663015  0.82278847    -0.58020
N214        N  0.30358484  0.16612883  0.79640258    -0.06550
N215        N  0.31309621  0.13604089  0.82538947    -0.60860
N216        N  0.32980031  0.19727155  0.69723286    -0.05540
N217        N  0.35902268  0.18715346  0.66701396    -0.58050
Mn218      Mn  0.24767321  0.16575361  0.75019129     1.20190
Mn219      Mn  0.33434968  0.24920948  0.74712010     1.10090
Cl220      Cl  0.24834941  0.24954520  0.75136368    -0.86020
C221        C  0.34316145  0.14855186  0.65066299     0.96320
C222        C  0.35309802  0.14936409  0.84197296     0.96110
C223        C  0.45297350  0.45548857  0.96696572    -0.02540
C224        C  0.45098374  0.03782377  0.96385179    -0.02540
C225        C  0.05153724  0.45933544  0.97081765    -0.02540
C226        C  0.04809674  0.04124166  0.96728721    -0.02540
C227        C  0.47793303  0.99665501  0.94887330     0.00510
C228        C  0.02491898  0.99835631  0.95074955     0.00510
C229        C  0.45077067  0.45864764  0.53375938    -0.02540
C230        C  0.04958053  0.46145194  0.53711498    -0.02540
C231        C  0.02397101  0.43532510  0.50373157     0.00510
C232        C  0.47916228  0.43338197  0.50219367     0.00510
C233        C  0.04641019  0.04370434  0.53454716    -0.02540
C234        C  0.47482863  0.00098792  0.55060073     0.00510
C235        C  0.02196630  0.00224179  0.55256619     0.00510
C236        C  0.07794137  0.02394167  0.50229538     0.00510
C237        C  0.07972774  0.48074816  0.50434781     0.00510
C238        C  0.47577963  0.06401663  0.49745697     0.00510
C239        C  0.02005254  0.06582553  0.49929839     0.00510
C240        C  0.44873449  0.04110063  0.53075418    -0.02540
C241        C  0.42162521  0.47646728  0.49859686     0.00510
C242        C  0.41987466  0.01979177  0.49701677     0.00530
C243        C  0.42190802  0.37535893  0.87357463    -0.12320
C244        C  0.37758681  0.36397414  0.88335207     0.04690
C245        C  0.35854498  0.37958231  0.92151850    -0.07610
C246        C  0.38472306  0.40644964  0.94862615    -0.08350
C247        C  0.42805946  0.42236889  0.93702324    -0.02900
C248        C  0.44650475  0.40557876  0.89847044     0.03910
N249        N  0.48564137  0.42415812  0.87939963     0.66420
H250        H  0.43586148  0.36449251  0.84346179     0.15320
H251        H  0.36978469  0.41600933  0.97857014     0.15030
N252        N  0.31292268  0.36890163  0.93328882     0.74130
O253        O  0.51326432  0.39854220  0.86138917    -0.39330
O254        O  0.48180711  0.46267361  0.86484524    -0.39270
O255        O  0.29586682  0.33200835  0.92342778    -0.39970
O256        O  0.29034764  0.39535772  0.95592879    -0.40040
C257        C  0.44045521  0.11059184  0.92375277    -0.12320
C258        C  0.42750841  0.06602718  0.92963246     0.04690
C259        C  0.39146029  0.04976232  0.90439124    -0.07610
C260        C  0.36838082  0.07781236  0.87655388    -0.08350
C261        C  0.37940373  0.12260920  0.87289879    -0.02900
C262        C  0.41590655  0.13940924  0.89715185     0.03910
N263        N  0.42684775  0.18571680  0.89741879     0.66420
H264        H  0.46877721  0.12401975  0.94134305     0.15320
H265        H  0.34103497  0.06403851  0.85770619     0.15030
N266        N  0.37658584  0.00507231  0.90662953     0.74130
O267        O  0.39606341  0.21403581  0.90286559    -0.39330
O268        O  0.46749921  0.19784596  0.90040849    -0.39270
O269        O  0.34577608  0.99576626  0.93266619    -0.39970
O270        O  0.38112725  0.98107277  0.87400236    -0.40040
C271        C  0.06675001  0.38510636  0.93571690    -0.12320
C272        C  0.07996121  0.42953247  0.94184320     0.04690
C273        C  0.12043471  0.44385683  0.92189457    -0.07610
C274        C  0.14290086  0.41561357  0.89387089    -0.08350
C275        C  0.12793007  0.37251342  0.88590667    -0.02900
C276        C  0.09010041  0.35667656  0.90825609     0.03910
N277        N  0.07417578  0.31228531  0.90316787     0.66420
H278        H  0.03685333  0.37233530  0.95101117     0.15320
H279        H  0.17315145  0.42768912  0.87858712     0.15030
N280        N  0.14206549  0.48502457  0.93179058     0.74130
O281        O  0.07350811  0.28692722  0.93503745    -0.39330
O282        O  0.05129749  0.30218284  0.87055544    -0.39270
O283        O  0.16363645  0.48801576  0.96645169    -0.39970
O284        O  0.15429451  0.50938364  0.90140083    -0.40040
C285        C  0.41429286  0.36945627  0.61580697    -0.12320
C286        C  0.36928554  0.38040095  0.62349232     0.04690
C287        C  0.35038683  0.41667721  0.60134070    -0.07610
C288        C  0.37678712  0.44011293  0.57196933    -0.08350
C289        C  0.42298000  0.43037330  0.56526245    -0.02900
C290        C  0.44104443  0.39363136  0.58764234     0.03910
N291        N  0.48598056  0.37841446  0.58176381     0.66420
H292        H  0.42944424  0.34148261  0.63203242     0.15320
H293        H  0.36085989  0.46725911  0.55520178     0.15030
N294        N  0.30471656  0.43052134  0.60799223     0.74130
O295        O  0.51087885  0.37547576  0.61438283    -0.39330
O296        O  0.49346554  0.35276289  0.55083663    -0.39270
O297        O  0.29412571  0.44841292  0.64287486    -0.39970
O298        O  0.27856314  0.43479565  0.57639426    -0.40040
C299        C  0.09412187  0.11038459  0.95119533    -0.12320
C300        C  0.07241601  0.07198057  0.93559147     0.04690
C301        C  0.07471168  0.06405549  0.89116595    -0.07610
C302        C  0.10287136  0.08965405  0.86556771    -0.08350
C303        C  0.12666491  0.12560297  0.88205916    -0.02900
C304        C  0.12103116  0.13747674  0.92520465     0.03910
N305        N  0.14206529  0.17630283  0.94326987     0.66420
H306        H  0.08972738  0.11982847  0.98398373     0.15320
H307        H  0.10458338  0.08247965  0.83174565     0.15030
N308        N  0.04605478  0.03316600  0.87021985     0.74130
O309        O  0.12632453  0.19375277  0.97660888    -0.39330
O310        O  0.17779152  0.19196738  0.92767318    -0.39270
O311        O  0.00646162  0.04551536  0.86119466    -0.39970
O312        O  0.06369257  0.00236082  0.84879336    -0.40040
C313        C  0.08732928  0.38818877  0.55734661    -0.12320
C314        C  0.07698306  0.43253788  0.56856538     0.04690
C315        C  0.09432881  0.44812067  0.60791806    -0.07610
C316        C  0.11536244  0.41900383  0.63627021    -0.08350
C317        C  0.12183609  0.37446752  0.62633979    -0.02900
C318        C  0.10813019  0.35868645  0.58599370     0.03910
N319        N  0.11552479  0.31359314  0.57302376     0.66420
H320        H  0.07774063  0.37539956  0.52645994     0.15320
H321        H  0.12856763  0.43201667  0.66605130     0.15030
N322        N  0.09858312  0.49392623  0.61716835     0.74130
O323        O  0.10628348  0.28215039  0.59783143    -0.39330
O324        O  0.12432886  0.30487522  0.53461767    -0.39270
O325        O  0.07988041  0.50859871  0.65029744    -0.39970
O326        O  0.13425453  0.51247618  0.60481376    -0.40040
C327        C  0.39178188  0.14232818  0.58676324    -0.12320
C328        C  0.36740885  0.12124194  0.61880554     0.04690
C329        C  0.36983778  0.07473324  0.62191345    -0.07610
C330        C  0.39722531  0.05084665  0.59385288    -0.08350
C331        C  0.42148030  0.07122737  0.56099528    -0.02900
C332        C  0.41858888  0.11842122  0.55798036     0.03910
N333        N  0.44450063  0.14367052  0.52842217     0.66420
H334        H  0.39094369  0.17810920  0.58463665     0.15320
H335        H  0.40062646  0.01588742  0.59896781     0.15030
N336        N  0.34647248  0.05112774  0.65453978     0.74130
O337        O  0.42418795  0.16952922  0.50328032    -0.39330
O338        O  0.48568431  0.15057875  0.53642323    -0.39270
O339        O  0.30418135  0.04689742  0.65204909    -0.39970
O340        O  0.36840492  0.02661169  0.67974060    -0.40040
C341        C  0.11575673  0.08858550  0.55741554    -0.12320
C342        C  0.07050367  0.07575664  0.56579084     0.04690
C343        C  0.04983094  0.09410747  0.60277935    -0.07610
C344        C  0.07447875  0.12283193  0.62923198    -0.08350
C345        C  0.11951848  0.13302526  0.62129187    -0.02900
C346        C  0.14030055  0.11662964  0.58444306     0.03910
N347        N  0.18595144  0.12838913  0.57366260     0.66420
H348        H  0.13329264  0.07636588  0.52974380     0.15320
H349        H  0.05904411  0.13503428  0.65819834     0.15030
N350        N  0.00542688  0.08247458  0.61662706     0.74130
O351        O  0.20985332  0.10242557  0.55173386    -0.39330
O352        O  0.20095819  0.16650531  0.58208249    -0.39270
O353        O  0.99816040  0.04358258  0.62922455    -0.39970
O354        O  0.98043155  0.11282079  0.63093838    -0.40040
N355        N  0.19361158  0.83320793  0.20650954    -0.06170
N356        N  0.18567784  0.86252265  0.17637242    -0.58290
N357        N  0.16588501  0.80080966  0.30444910    -0.05850
N358        N  0.13657372  0.80893733  0.33495972    -0.60420
N359        N  0.19762879  0.83106222  0.30418628    -0.05450
N360        N  0.19046631  0.86047262  0.33439813    -0.58270
N361        N  0.16195762  0.80276099  0.20659127    -0.05130
N362        N  0.13173119  0.81083915  0.17648515    -0.60770
C363        C  0.14744464  0.84780364  0.15741639     0.96000
C364        C  0.15241384  0.84618251  0.35361859     0.95780
N365        N  0.19679183  0.66661236  0.30133471    -0.06360
N366        N  0.18951211  0.63660360  0.33101801    -0.58870
N367        N  0.16091512  0.69888391  0.20530673    -0.04480
N368        N  0.12995448  0.69231647  0.17560882    -0.60120
N369        N  0.19245792  0.66836388  0.20324243    -0.06390
N370        N  0.18396466  0.64060754  0.17174854    -0.59140
N371        N  0.16579401  0.69771672  0.30304140    -0.04120
N372        N  0.13712822  0.68985267  0.33413186    -0.60210
Mn373      Mn  0.16227675  0.75002384  0.25483833     1.18440
C374        C  0.15277941  0.65205641  0.35171492     0.98090
C375        C  0.14514405  0.65624091  0.15464423     0.98750
N376        N  0.30379521  0.82993967  0.30104172    -0.06410
N377        N  0.31211597  0.85673028  0.33343501    -0.62720
N378        N  0.33040049  0.80342789  0.20017445    -0.05210
N379        N  0.35969704  0.81401662  0.17038472    -0.63390
N380        N  0.29908730  0.83410745  0.20299850    -0.05910
N381        N  0.30626051  0.86582036  0.17500442    -0.62980
N382        N  0.33565943  0.79977344  0.29794823    -0.04810
N383        N  0.36646794  0.80561746  0.32797866    -0.63670
Mn384      Mn  0.24853697  0.83335594  0.25384119     1.10660
C385        C  0.35102799  0.84082316  0.35023364     0.99310
C386        C  0.34409180  0.85293343  0.15462986     0.99390
N387        N  0.29821972  0.66677594  0.19927946    -0.05920
N388        N  0.30534784  0.63553120  0.17076199    -0.61290
N389        N  0.33579996  0.69594531  0.29484699    -0.05240
N390        N  0.36792009  0.68663141  0.32279722    -0.58020
N391        N  0.30357887  0.66612593  0.29639926    -0.06550
N392        N  0.31308840  0.63603727  0.32538688    -0.60860
N393        N  0.32980552  0.69727498  0.19723700    -0.05540
N394        N  0.35904367  0.68715106  0.16703363    -0.58050
Mn395      Mn  0.24766748  0.66575649  0.25018124     1.20190
Mn396      Mn  0.33434691  0.74921191  0.24712591     1.10090
Cl397      Cl  0.24834596  0.74954911  0.25136137    -0.86020
C398        C  0.34319254  0.64854623  0.15068216     0.96320
C399        C  0.35308651  0.64936305  0.34197809     0.96110
C400        C  0.45296840  0.95549075  0.46697021    -0.02540
C401        C  0.45098349  0.53782145  0.46385843    -0.02540
C402        C  0.05152814  0.95933307  0.47083303    -0.02540
C403        C  0.04809898  0.54124314  0.46727972    -0.02540
C404        C  0.47793413  0.49665563  0.44887053     0.00510
C405        C  0.02492150  0.49835821  0.45074093     0.00510
C406        C  0.45075837  0.95866120  0.03376346    -0.02540
C407        C  0.04956038  0.96146340  0.03713793    -0.02540
C408        C  0.02395827  0.93533011  0.00375068     0.00510
C409        C  0.47915113  0.93338913  0.00220519     0.00510
C410        C  0.04641704  0.54369596  0.03454210    -0.02540
C411        C  0.47484685  0.50097001  0.05060059     0.00510
C412        C  0.02198436  0.50222405  0.05255592     0.00510
C413        C  0.07795376  0.52394546  0.00228580     0.00510
C414        C  0.07971219  0.98074658  0.00436575     0.00510
C415        C  0.47578526  0.56400698  0.99746317     0.00510
C416        C  0.02005646  0.56581626  0.99929688     0.00510
C417        C  0.44875227  0.54108601  0.03076681    -0.02540
C418        C  0.42161636  0.97647426  0.99859449     0.00510
C419        C  0.41988207  0.51978541  0.99702938     0.00530
C420        C  0.42190234  0.87536183  0.37357872    -0.12320
C421        C  0.37758060  0.86397823  0.38335602     0.04690
C422        C  0.35853925  0.87958619  0.42152262    -0.07610
C423        C  0.38471844  0.90645141  0.44863102    -0.08350
C424        C  0.42805553  0.92236944  0.43702866    -0.02900
C425        C  0.44650034  0.90557993  0.39847550     0.03910
N426        N  0.48563906  0.92415705  0.37940637     0.66420
H427        H  0.43585565  0.86449542  0.34346580     0.15320
H428        H  0.36978017  0.91601087  0.47857507     0.15030
N429        N  0.31291607  0.86890805  0.43329212     0.74130
O430        O  0.51326286  0.89853902  0.36139987    -0.39330
O431        O  0.48180764  0.96267199  0.36484964    -0.39270
O432        O  0.29585818  0.83201575  0.42343082    -0.39970
O433        O  0.29034193  0.89536574  0.45593116    -0.40040
C434        C  0.44043707  0.61059818  0.42377275    -0.12320
C435        C  0.42750062  0.56602934  0.42964466     0.04690
C436        C  0.39145666  0.54976232  0.40439877    -0.07610
C437        C  0.36837513  0.57781133  0.37656086    -0.08350
C438        C  0.37939067  0.62261013  0.37290926    -0.02900
C439        C  0.41588626  0.63941416  0.39717058     0.03910
N440        N  0.42681877  0.68572370  0.39744294     0.66420
H441        H  0.46875427  0.62402906  0.44136773     0.15320
H442        H  0.34103382  0.56403477  0.35770911     0.15030
N443        N  0.37658754  0.50507061  0.40663331     0.74130
O444        O  0.39602771  0.71403698  0.40288353    -0.39330
O445        O  0.46746729  0.69786019  0.40044155    -0.39270
O446        O  0.34578013  0.49575891  0.43267054    -0.39970
O447        O  0.38112960  0.48107502  0.37400350    -0.40040
C448        C  0.06674753  0.88510266  0.43573310    -0.12320
C449        C  0.07995387  0.92953016  0.44185842     0.04690
C450        C  0.12041798  0.94386167  0.42189777    -0.07610
C451        C  0.14288303  0.91562161  0.39386954    -0.08350
C452        C  0.12791929  0.87251843  0.38590893    -0.02900
C453        C  0.09009644  0.85667619  0.40826632     0.03910
N454        N  0.07417679  0.81228292  0.40318024     0.66420
H455        H  0.03685615  0.87232825  0.45103401     0.15320
H456        H  0.17312689  0.92770274  0.37857805     0.15030
N457        N  0.14203894  0.98503709  0.43178211     0.74130
O458        O  0.07350704  0.78692810  0.43505215    -0.39330
O459        O  0.05130273  0.80217547  0.37056662    -0.39270
O460        O  0.16361147  0.98804343  0.46644106    -0.39970
O461        O  0.15425775  0.00939195  0.40138542    -0.40040
C462        C  0.41431433  0.86948760  0.11584104    -0.12320
C463        C  0.36929467  0.88040634  0.12350197     0.04690
C464        C  0.35038099  0.91665986  0.10132845    -0.07610
C465        C  0.37677765  0.94010443  0.07196086    -0.08350
C466        C  0.42297805  0.93038620  0.06527172    -0.02900
C467        C  0.44106123  0.89366601  0.08767370     0.03910
N468        N  0.48601021  0.87847191  0.08181157     0.66420
H469        H  0.42947610  0.84153264  0.13208485     0.15320
H470        H  0.36084346  0.96723016  0.05518397     0.15030
N471        N  0.30469450  0.93046873  0.10794796     0.74130
O472        O  0.51090545  0.87556073  0.11443492    -0.39330
O473        O  0.49352331  0.85281833  0.05089220    -0.39270
O474        O  0.29407168  0.94839056  0.14280751    -0.39970
O475        O  0.27855031  0.93468136  0.07633560    -0.40040
C476        C  0.09405246  0.61043069  0.45116726    -0.12320
C477        C  0.07240463  0.57198855  0.43557936     0.04690
C478        C  0.07474315  0.56403126  0.39116176    -0.07610
C479        C  0.10291079  0.58962528  0.36556747    -0.08350
C480        C  0.12665927  0.62560719  0.38204995    -0.02900
C481        C  0.12096622  0.63751984  0.42517824     0.03910
N482        N  0.14194680  0.67638127  0.44322811     0.66420
H483        H  0.08960183  0.61991196  0.48393841     0.15320
H484        H  0.10465611  0.58242599  0.33175197     0.15030
N485        N  0.04609936  0.53313238  0.37021299     0.74130
O486        O  0.12615279  0.69385261  0.47653410    -0.39330
O487        O  0.17768268  0.69205337  0.42765784    -0.39270
O488        O  0.00651414  0.54548264  0.36115682    -0.39970
O489        O  0.06374841  0.50231379  0.34881268    -0.40040
C490        C  0.08741568  0.88824538  0.05731453    -0.12320
C491        C  0.07696243  0.93255479  0.06859348     0.04690
C492        C  0.09417357  0.94808526  0.10802013    -0.07610
C493        C  0.11524728  0.91895929  0.13633662    -0.08350
C494        C  0.12184588  0.87446099  0.12632836    -0.02900
C495        C  0.10823036  0.85872659  0.08593825     0.03910
N496        N  0.11573160  0.81366860  0.07290110     0.66420
H497        H  0.07789596  0.87549761  0.02639385     0.15320
H498        H  0.12835166  0.93193420  0.16617262     0.15030
N499        N  0.09816480  0.99387428  0.11745239     0.74130
O500        O  0.10666647  0.78216438  0.09769552    -0.39330
O501        O  0.12449580  0.80502256  0.03447165    -0.39270
O502        O  0.07911429  0.00834161  0.15048512    -0.39970
O503        O  0.13388274  0.01260051  0.10546429    -0.40040
C504        C  0.39186350  0.64232172  0.08681838    -0.12320
C505        C  0.36745787  0.62123174  0.11883839     0.04690
C506        C  0.36987252  0.57472452  0.12193873    -0.07610
C507        C  0.39726434  0.55081971  0.09388372    -0.08350
C508        C  0.42152577  0.57121477  0.06102839    -0.02900
C509        C  0.41867138  0.61840948  0.05803904     0.03910
N510        N  0.44461668  0.64365936  0.02850683     0.66420
H511        H  0.39104549  0.67808918  0.08470456     0.15320
H512        H  0.40065032  0.51594830  0.09898597     0.15030
N513        N  0.34648951  0.55111868  0.15455471     0.74130
O514        O  0.42433695  0.66954132  0.00336395    -0.39330
O515        O  0.48580033  0.65053690  0.03653340    -0.39270
O516        O  0.30419784  0.54689717  0.15204766    -0.39970
O517        O  0.36840602  0.52660400  0.17976721    -0.40040
C518        C  0.11569175  0.58870611  0.05735758    -0.12320
C519        C  0.07048797  0.57575999  0.06578816     0.04690
C520        C  0.04983878  0.59400112  0.10283710    -0.07610
C521        C  0.07446518  0.62274033  0.12929390    -0.08350
C522        C  0.11947156  0.63303716  0.12130272    -0.02900
C523        C  0.14022583  0.61674622  0.08439689     0.03910
N524        N  0.18584012  0.62860121  0.07357516     0.66420
H525        H  0.13320480  0.57655812  0.02964397     0.15320
H526        H  0.05905383  0.63485948  0.15830354     0.15030
N527        N  0.00550318  0.58220880  0.11675358     0.74130
O528        O  0.20974738  0.60272471  0.05155700    -0.39330
O529        O  0.20080455  0.66671759  0.08206205    -0.39270
O530        O  0.99841255  0.54329060  0.12937099    -0.39970
O531        O  0.98042177  0.61246547  0.13110497    -0.40040
N532        N  0.19361158  0.83320793  0.70650953    -0.06170
N533        N  0.18567784  0.86252265  0.67637242    -0.58290
N534        N  0.16588501  0.80080966  0.80444910    -0.05850
N535        N  0.13657372  0.80893733  0.83495972    -0.60420
N536        N  0.19762879  0.83106222  0.80418628    -0.05450
N537        N  0.19046631  0.86047262  0.83439813    -0.58270
N538        N  0.16195763  0.80276099  0.70659127    -0.05130
N539        N  0.13173119  0.81083914  0.67648515    -0.60770
C540        C  0.14744465  0.84780363  0.65741638     0.96000
C541        C  0.15241384  0.84618251  0.85361859     0.95780
N542        N  0.19679183  0.66661236  0.80133471    -0.06360
N543        N  0.18951211  0.63660361  0.83101801    -0.58870
N544        N  0.16091512  0.69888391  0.70530673    -0.04480
N545        N  0.12995448  0.69231647  0.67560882    -0.60120
N546        N  0.19245793  0.66836388  0.70324243    -0.06390
N547        N  0.18396467  0.64060754  0.67174855    -0.59140
N548        N  0.16579401  0.69771673  0.80304140    -0.04120
N549        N  0.13712822  0.68985267  0.83413186    -0.60210
Mn550      Mn  0.16227675  0.75002384  0.75483833     1.18440
C551        C  0.15277940  0.65205642  0.85171492     0.98090
C552        C  0.14514406  0.65624091  0.65464423     0.98750
N553        N  0.30379520  0.82993967  0.80104172    -0.06410
N554        N  0.31211597  0.85673028  0.83343501    -0.62720
N555        N  0.33040049  0.80342789  0.70017445    -0.05210
N556        N  0.35969704  0.81401662  0.67038472    -0.63390
N557        N  0.29908730  0.83410745  0.70299850    -0.05910
N558        N  0.30626052  0.86582036  0.67500442    -0.62980
N559        N  0.33565943  0.79977344  0.79794823    -0.04810
N560        N  0.36646793  0.80561746  0.82797867    -0.63670
Mn561      Mn  0.24853696  0.83335594  0.75384118     1.10660
C562        C  0.35102798  0.84082316  0.85023364     0.99310
C563        C  0.34409180  0.85293343  0.65462986     0.99390
N564        N  0.29821973  0.66677594  0.69927947    -0.05920
N565        N  0.30534784  0.63553121  0.67076200    -0.61290
N566        N  0.33579995  0.69594531  0.79484700    -0.05240
N567        N  0.36792008  0.68663142  0.82279723    -0.58020
N568        N  0.30357887  0.66612593  0.79639926    -0.06550
N569        N  0.31308840  0.63603727  0.82538689    -0.60860
N570        N  0.32980552  0.69727498  0.69723701    -0.05540
N571        N  0.35904367  0.68715106  0.66703364    -0.58050
Mn572      Mn  0.24766748  0.66575649  0.75018124     1.20190
Mn573      Mn  0.33434691  0.74921191  0.74712591     1.10090
Cl574      Cl  0.24834596  0.74954912  0.75136138    -0.86020
C575        C  0.34319254  0.64854624  0.65068216     0.96320
C576        C  0.35308651  0.64936306  0.84197810     0.96110
C577        C  0.45296840  0.95549075  0.96697021    -0.02540
C578        C  0.45098350  0.53782144  0.96385843    -0.02540
C579        C  0.05152814  0.95933307  0.97083303    -0.02540
C580        C  0.04809898  0.54124314  0.96727972    -0.02540
C581        C  0.47793413  0.49665562  0.94887053     0.00510
C582        C  0.02492151  0.49835821  0.95074093     0.00510
C583        C  0.45075837  0.95866120  0.53376346    -0.02540
C584        C  0.04956038  0.96146340  0.53713793    -0.02540
C585        C  0.02395826  0.93533012  0.50375068     0.00510
C586        C  0.47915113  0.93338914  0.50220519     0.00510
C587        C  0.04641704  0.54369596  0.53454210    -0.02540
C588        C  0.47484685  0.50097001  0.55060060     0.00510
C589        C  0.02198436  0.50222405  0.55255592     0.00510
C590        C  0.07795376  0.52394546  0.50228580     0.00510
C591        C  0.07971219  0.98074658  0.50436575     0.00510
C592        C  0.47578525  0.56400699  0.49746317     0.00510
C593        C  0.02005646  0.56581627  0.49929688     0.00510
C594        C  0.44875227  0.54108602  0.53076681    -0.02540
C595        C  0.42161636  0.97647426  0.49859449     0.00510
C596        C  0.41988207  0.51978542  0.49702939     0.00530
C597        C  0.42190234  0.87536181  0.87357873    -0.12320
C598        C  0.37758059  0.86397824  0.88335602     0.04690
C599        C  0.35853924  0.87958620  0.92152262    -0.07610
C600        C  0.38471843  0.90645143  0.94863102    -0.08350
C601        C  0.42805553  0.92236944  0.93702866    -0.02900
C602        C  0.44650034  0.90557991  0.89847551     0.03910
N603        N  0.48563909  0.92415700  0.87940639     0.66420
H604        H  0.43585565  0.86449539  0.84346582     0.15320
H605        H  0.36978015  0.91601089  0.97857506     0.15030
N606        N  0.31291605  0.86890808  0.93329211     0.74130
O607        O  0.51326286  0.89853895  0.86139989    -0.39330
O608        O  0.48180771  0.96267195  0.86484967    -0.39270
O609        O  0.29585815  0.83201579  0.92343082    -0.39970
O610        O  0.29034191  0.89536579  0.95593114    -0.40040
C611        C  0.44043707  0.61059819  0.92377276    -0.12320
C612        C  0.42750063  0.56602934  0.92964466     0.04690
C613        C  0.39145668  0.54976233  0.90439875    -0.07610
C614        C  0.36837514  0.57781133  0.87656086    -0.08350
C615        C  0.37939067  0.62261014  0.87290927    -0.02900
C616        C  0.41588625  0.63941417  0.89717059     0.03910
N617        N  0.42681875  0.68572372  0.89744297     0.66420
H618        H  0.46875426  0.62402907  0.94136775     0.15320
H619        H  0.34103384  0.56403477  0.85770910     0.15030
N620        N  0.37658758  0.50507060  0.90663327     0.74130
O621        O  0.39602768  0.71403698  0.90288355    -0.39330
O622        O  0.46746727  0.69786021  0.90044159    -0.39270
O623        O  0.34578014  0.49575889  0.93267044    -0.39970
O624        O  0.38112972  0.48107502  0.87400346    -0.40040
C625        C  0.06674754  0.88510265  0.93573311    -0.12320
C626        C  0.07995388  0.92953016  0.94185843     0.04690
C627        C  0.12041798  0.94386167  0.92189777    -0.07610
C628        C  0.14288303  0.91562161  0.89386954    -0.08350
C629        C  0.12791929  0.87251843  0.88590894    -0.02900
C630        C  0.09009645  0.85667618  0.90826633     0.03910
N631        N  0.07417682  0.81228291  0.90318026     0.66420
H632        H  0.03685617  0.87232824  0.95103402     0.15320
H633        H  0.17312688  0.92770274  0.87857805     0.15030
N634        N  0.14203895  0.98503709  0.93178210     0.74130
O635        O  0.07350706  0.78692810  0.93505218    -0.39330
O636        O  0.05130275  0.80217545  0.87056664    -0.39270
O637        O  0.16361147  0.98804343  0.96644106    -0.39970
O638        O  0.15425775  0.00939195  0.90138542    -0.40040
C639        C  0.41431432  0.86948757  0.61584101    -0.12320
C640        C  0.36929467  0.88040633  0.62350197     0.04690
C641        C  0.35038100  0.91665987  0.60132848    -0.07610
C642        C  0.37677766  0.94010445  0.57196089    -0.08350
C643        C  0.42297806  0.93038620  0.56527172    -0.02900
C644        C  0.44106123  0.89366599  0.58767367     0.03910
N645        N  0.48601019  0.87847186  0.58181153     0.66420
H646        H  0.42947608  0.84153260  0.63208480     0.15320
H647        H  0.36084348  0.96723019  0.55518402     0.15030
N648        N  0.30469453  0.93046878  0.60794801     0.74130
O649        O  0.51090544  0.87556066  0.61443487    -0.39330
O650        O  0.49352328  0.85281831  0.55089213    -0.39270
O651        O  0.29407174  0.94839058  0.64280758    -0.39970
O652        O  0.27855032  0.93468144  0.57633566    -0.40040
C653        C  0.09405245  0.61043069  0.95116726    -0.12320
C654        C  0.07240462  0.57198855  0.93557935     0.04690
C655        C  0.07474315  0.56403126  0.89116176    -0.07610
C656        C  0.10291079  0.58962528  0.86556746    -0.08350
C657        C  0.12665926  0.62560720  0.88204994    -0.02900
C658        C  0.12096621  0.63751985  0.92517824     0.03910
N659        N  0.14194678  0.67638128  0.94322811     0.66420
H660        H  0.08960182  0.61991196  0.98393840     0.15320
H661        H  0.10465612  0.58242599  0.83175197     0.15030
N662        N  0.04609937  0.53313237  0.87021298     0.74130
O663        O  0.12615278  0.69385262  0.97653410    -0.39330
O664        O  0.17768267  0.69205338  0.92765784    -0.39270
O665        O  0.00651413  0.54548260  0.86115685    -0.39970
O666        O  0.06374843  0.50231381  0.84881265    -0.40040
C667        C  0.08741568  0.88824538  0.55731453    -0.12320
C668        C  0.07696243  0.93255479  0.56859348     0.04690
C669        C  0.09417355  0.94808525  0.60802014    -0.07610
C670        C  0.11524728  0.91895929  0.63633662    -0.08350
C671        C  0.12184588  0.87446098  0.62632836    -0.02900
C672        C  0.10823036  0.85872659  0.58593824     0.03910
N673        N  0.11573161  0.81366859  0.57290109     0.66420
H674        H  0.07789596  0.87549761  0.52639384     0.15320
H675        H  0.12835165  0.93193419  0.66617262     0.15030
N676        N  0.09816477  0.99387427  0.61745240     0.74130
O677        O  0.10666648  0.78216438  0.59769551    -0.39330
O678        O  0.12449579  0.80502256  0.53447164    -0.39270
O679        O  0.07911424  0.00834160  0.65048513    -0.39970
O680        O  0.13388272  0.01260052  0.60546433    -0.40040
C681        C  0.39186349  0.64232172  0.58681837    -0.12320
C682        C  0.36745787  0.62123175  0.61883839     0.04690
C683        C  0.36987254  0.57472453  0.62193875    -0.07610
C684        C  0.39726434  0.55081974  0.59388372    -0.08350
C685        C  0.42152576  0.57121478  0.56102839    -0.02900
C686        C  0.41867136  0.61840949  0.55803904     0.03910
N687        N  0.44461665  0.64365936  0.52850682     0.66420
H688        H  0.39104547  0.67808920  0.58470455     0.15320
H689        H  0.40065035  0.51594821  0.59898600     0.15030
N690        N  0.34648955  0.55111869  0.65455474     0.74130
O691        O  0.42433692  0.66954131  0.50336393    -0.39330
O692        O  0.48580030  0.65053692  0.53653338    -0.39270
O693        O  0.30419788  0.54689717  0.65204770    -0.39970
O694        O  0.36840607  0.52660402  0.67976723    -0.40040
C695        C  0.11569176  0.58870609  0.55735758    -0.12320
C696        C  0.07048797  0.57575999  0.56578816     0.04690
C697        C  0.04983878  0.59400113  0.60283709    -0.07610
C698        C  0.07446518  0.62274034  0.62929390    -0.08350
C699        C  0.11947157  0.63303716  0.62130272    -0.02900
C700        C  0.14022584  0.61674621  0.58439689     0.03910
N701        N  0.18584013  0.62860119  0.57357517     0.66420
H702        H  0.13320481  0.57655810  0.52964398     0.15320
H703        H  0.05905384  0.63485949  0.65830353     0.15030
N704        N  0.00550317  0.58220882  0.61675357     0.74130
O705        O  0.20974740  0.60272468  0.55155702    -0.39330
O706        O  0.20080457  0.66671756  0.58206205    -0.39270
O707        O  0.99841253  0.54329063  0.62937098    -0.39970
O708        O  0.98042177  0.61246551  0.63110495    -0.40040
N709        N  0.69360891  0.33320418  0.20651580    -0.06170
N710        N  0.68566664  0.36252699  0.17638837    -0.58290
N711        N  0.66589072  0.30080208  0.30445030    -0.05850
N712        N  0.63658055  0.30893078  0.33496124    -0.60420
N713        N  0.69763596  0.33105331  0.30418749    -0.05450
N714        N  0.69047583  0.36046375  0.33439916    -0.58270
N715        N  0.66195721  0.30275509  0.20659538    -0.05130
N716        N  0.63172432  0.31083964  0.17649650    -0.60770
C717        C  0.64742856  0.34781311  0.15743724     0.96000
C718        C  0.65242340  0.34617502  0.35361960     0.95780
N719        N  0.69679938  0.16660970  0.30134572    -0.06360
N720        N  0.68952128  0.13660314  0.33103167    -0.58870
N721        N  0.66092746  0.19887539  0.20530844    -0.04480
N722        N  0.62998108  0.19231038  0.17559703    -0.60120
N723        N  0.69247014  0.16835508  0.20325406    -0.06390
N724        N  0.68399196  0.14060081  0.17175593    -0.59140
N725        N  0.66579738  0.19771023  0.30304674    -0.04120
N726        N  0.63712984  0.18984551  0.33413583    -0.60210
Mn727      Mn  0.66228065  0.25001603  0.25484047     1.18440
C728        C  0.65278488  0.15205346  0.35172452     0.98090
C729        C  0.64518066  0.15623557  0.15463596     0.98750
N730        N  0.80380116  0.32993626  0.30103768    -0.06410
N731        N  0.81212153  0.35672544  0.33343211    -0.62720
N732        N  0.83039608  0.30342383  0.20016788    -0.05210
N733        N  0.85968900  0.31401223  0.17037530    -0.63390
N734        N  0.79908333  0.33410338  0.20299444    -0.05910
N735        N  0.80625334  0.36581605  0.17499928    -0.62980
N736        N  0.83566667  0.29977171  0.29794174    -0.04810
N737        N  0.86647571  0.30561536  0.32797185    -0.63670
Mn738      Mn  0.74853902  0.33335075  0.25384124     1.10660
C739        C  0.85103470  0.34081925  0.35022904     0.99310
C740        C  0.84408279  0.35292936  0.15462176     0.99390
N741        N  0.79821619  0.16677198  0.19928461    -0.05920
N742        N  0.80532807  0.13553325  0.17075811    -0.61290
N743        N  0.83580800  0.19594533  0.29484315    -0.05240
N744        N  0.86793222  0.18663015  0.32278846    -0.58020
N745        N  0.80358484  0.16612882  0.29640257    -0.06550
N746        N  0.81309622  0.13604088  0.32538946    -0.60860
N747        N  0.82980031  0.19727155  0.19723286    -0.05540
N748        N  0.85902268  0.18715345  0.16701395    -0.58050
Mn749      Mn  0.74767321  0.16575361  0.25019128     1.20190
Mn750      Mn  0.83434968  0.24920948  0.24712010     1.10090
Cl751      Cl  0.74834941  0.24954520  0.25136368    -0.86020
C752        C  0.84316145  0.14855185  0.15066299     0.96320
C753        C  0.85309802  0.14936409  0.34197296     0.96110
C754        C  0.95297350  0.45548858  0.46696572    -0.02540
C755        C  0.95098374  0.03782377  0.46385179    -0.02540
C756        C  0.55153724  0.45933544  0.47081765    -0.02540
C757        C  0.54809674  0.04124166  0.46728721    -0.02540
C758        C  0.97793303  0.99665501  0.44887330     0.00510
C759        C  0.52491898  0.99835631  0.45074955     0.00510
C760        C  0.95077068  0.45864763  0.03375938    -0.02540
C761        C  0.54958053  0.46145194  0.03711498    -0.02540
C762        C  0.52397101  0.43532510  0.00373157     0.00510
C763        C  0.97916229  0.43338197  0.00219367     0.00510
C764        C  0.54641019  0.04370434  0.03454716    -0.02540
C765        C  0.97482863  0.00098792  0.05060073     0.00510
C766        C  0.52196630  0.00224179  0.05256619     0.00510
C767        C  0.57794137  0.02394167  0.00229539     0.00510
C768        C  0.57972774  0.48074816  0.00434781     0.00510
C769        C  0.97577963  0.06401662  0.99745697     0.00510
C770        C  0.52005254  0.06582553  0.99929838     0.00510
C771        C  0.94873449  0.04110063  0.03075418    -0.02540
C772        C  0.92162521  0.47646727  0.99859686     0.00510
C773        C  0.91987466  0.01979177  0.99701676     0.00530
C774        C  0.92190802  0.37535896  0.37357461    -0.12320
C775        C  0.87758683  0.36397414  0.38335206     0.04690
C776        C  0.85854500  0.37958229  0.42151851    -0.07610
C777        C  0.88472308  0.40644962  0.44862616    -0.08350
C778        C  0.92805946  0.42236889  0.43702324    -0.02900
C779        C  0.94650474  0.40557880  0.39847042     0.03910
N780        N  0.98564133  0.42415820  0.37939960     0.66420
H781        H  0.93586147  0.36449257  0.34346176     0.15320
H782        H  0.86978472  0.41600929  0.47857016     0.15030
N783        N  0.81292271  0.36890158  0.43328884     0.74130
O784        O  0.01326431  0.39854232  0.36138914    -0.39330
O785        O  0.98180700  0.46267369  0.36484519    -0.39270
O786        O  0.79586687  0.33200830  0.42342779    -0.39970
O787        O  0.79034767  0.39535764  0.45592883    -0.40040
C788        C  0.94045522  0.11059183  0.42375276    -0.12320
C789        C  0.92750841  0.06602718  0.42963246     0.04690
C790        C  0.89146027  0.04976231  0.40439125    -0.07610
C791        C  0.86838081  0.07781235  0.37655389    -0.08350
C792        C  0.87940374  0.12260919  0.37289879    -0.02900
C793        C  0.91590656  0.13940923  0.39715183     0.03910
N794        N  0.92684777  0.18571679  0.39741877     0.66420
H795        H  0.96877722  0.12401974  0.44134304     0.15320
H796        H  0.84103496  0.06403851  0.35770620     0.15030
N797        N  0.87658581  0.00507232  0.40662956     0.74130
O798        O  0.89606344  0.21403580  0.40286557    -0.39330
O799        O  0.96749924  0.19784594  0.40040846    -0.39270
O800        O  0.84577607  0.99576627  0.43266625    -0.39970
O801        O  0.88112718  0.98107277  0.37400239    -0.40040
C802        C  0.56674998  0.38510637  0.43571687    -0.12320
C803        C  0.57996120  0.42953248  0.44184319     0.04690
C804        C  0.62043471  0.44385683  0.42189458    -0.07610
C805        C  0.64290086  0.41561357  0.39387089    -0.08350
C806        C  0.62793005  0.37251343  0.38590666    -0.02900
C807        C  0.59010037  0.35667658  0.40825606     0.03910
N808        N  0.57417573  0.31228533  0.40316782     0.66420
H809        H  0.53685329  0.37233532  0.45101113     0.15320
H810        H  0.67315146  0.42768911  0.37858714     0.15030
N811        N  0.64206550  0.48502456  0.43179060     0.74130
O812        O  0.57350804  0.28692723  0.43503738    -0.39330
O813        O  0.55129744  0.30218289  0.37055538    -0.39270
O814        O  0.66363646  0.48801573  0.46645171    -0.39970
O815        O  0.65429451  0.50938364  0.40140085    -0.40040
C816        C  0.91429286  0.36945628  0.11580699    -0.12320
C817        C  0.86928554  0.38040096  0.12349232     0.04690
C818        C  0.85038682  0.41667721  0.10134068    -0.07610
C819        C  0.87678711  0.44011291  0.07196931    -0.08350
C820        C  0.92297999  0.43037329  0.06526245    -0.02900
C821        C  0.94104443  0.39363137  0.08764235     0.03910
N822        N  0.98598057  0.37841448  0.08176383     0.66420
H823        H  0.92944425  0.34148263  0.13203245     0.15320
H824        H  0.86085987  0.46725909  0.05520175     0.15030
N825        N  0.80471655  0.43052132  0.10799220     0.74130
O826        O  0.01087885  0.37547579  0.11438285    -0.39330
O827        O  0.99346555  0.35276289  0.05083666    -0.39270
O828        O  0.79412568  0.44841290  0.14287483    -0.39970
O829        O  0.77856314  0.43479562  0.07639423    -0.40040
C830        C  0.59412188  0.11038459  0.45119533    -0.12320
C831        C  0.57241601  0.07198057  0.43559147     0.04690
C832        C  0.57471168  0.06405549  0.39116595    -0.07610
C833        C  0.60287136  0.08965405  0.36556771    -0.08350
C834        C  0.62666492  0.12560296  0.38205916    -0.02900
C835        C  0.62103116  0.13747673  0.42520465     0.03910
N836        N  0.64206531  0.17630282  0.44326987     0.66420
H837        H  0.58972739  0.11982846  0.48398373     0.15320
H838        H  0.60458338  0.08247966  0.33174565     0.15030
N839        N  0.54605477  0.03316601  0.37021985     0.74130
O840        O  0.62632455  0.19375276  0.47660889    -0.39330
O841        O  0.67779153  0.19196737  0.42767318    -0.39270
O842        O  0.50646162  0.04551539  0.36119465    -0.39970
O843        O  0.56369255  0.00236081  0.34879337    -0.40040
C844        C  0.58732928  0.38818877  0.05734661    -0.12320
C845        C  0.57698307  0.43253788  0.06856538     0.04690
C846        C  0.59432882  0.44812068  0.10791806    -0.07610
C847        C  0.61536244  0.41900383  0.13627021    -0.08350
C848        C  0.62183610  0.37446753  0.12633979    -0.02900
C849        C  0.60813019  0.35868645  0.08599371     0.03910
N850        N  0.61552479  0.31359314  0.07302377     0.66420
H851        H  0.57774063  0.37539955  0.02645994     0.15320
H852        H  0.62856764  0.43201668  0.16605130     0.15030
N853        N  0.59858314  0.49392624  0.11716834     0.74130
O854        O  0.60628347  0.28215039  0.09783144    -0.39330
O855        O  0.62432887  0.30487522  0.03461768    -0.39270
O856        O  0.57988044  0.50859872  0.15029744    -0.39970
O857        O  0.63425455  0.51247618  0.10481373    -0.40040
C858        C  0.89178190  0.14232818  0.08676325    -0.12320
C859        C  0.86740885  0.12124193  0.11880554     0.04690
C860        C  0.86983776  0.07473323  0.12191343    -0.07610
C861        C  0.89722529  0.05084662  0.09385287    -0.08350
C862        C  0.92148030  0.07122737  0.06099528    -0.02900
C863        C  0.91858890  0.11842121  0.05798037     0.03910
N864        N  0.94450067  0.14367052  0.02842220     0.66420
H865        H  0.89094372  0.17810917  0.08463667     0.15320
H866        H  0.90062642  0.01588751  0.09896777     0.15030
N867        N  0.84647244  0.05112773  0.15453974     0.74130
O868        O  0.92418799  0.16952923  0.00328034    -0.39330
O869        O  0.98568434  0.15057874  0.03642326    -0.39270
O870        O  0.80418130  0.04689742  0.15204903    -0.39970
O871        O  0.86840485  0.02661167  0.17974058    -0.40040
C872        C  0.61575672  0.08858552  0.05741553    -0.12320
C873        C  0.57050366  0.07575664  0.06579084     0.04690
C874        C  0.54983094  0.09410746  0.10277936    -0.07610
C875        C  0.57447874  0.12283192  0.12923199    -0.08350
C876        C  0.61951848  0.13302526  0.12129187    -0.02900
C877        C  0.64030054  0.11662965  0.08444306     0.03910
N878        N  0.68595143  0.12838915  0.07366259     0.66420
H879        H  0.63329263  0.07636590  0.02974379     0.15320
H880        H  0.55904411  0.13503427  0.15819835     0.15030
N881        N  0.50542689  0.08247456  0.11662707     0.74130
O882        O  0.70985331  0.10242560  0.05173384    -0.39330
O883        O  0.70095817  0.16650534  0.08208249    -0.39270
O884        O  0.49816042  0.04358256  0.12922456    -0.39970
O885        O  0.48043155  0.11282076  0.13093840    -0.40040
N886        N  0.69360891  0.33320418  0.70651579    -0.06170
N887        N  0.68566664  0.36252698  0.67638837    -0.58290
N888        N  0.66589071  0.30080208  0.80445030    -0.05850
N889        N  0.63658055  0.30893077  0.83496124    -0.60420
N890        N  0.69763595  0.33105331  0.80418749    -0.05450
N891        N  0.69047583  0.36046375  0.83439916    -0.58270
N892        N  0.66195720  0.30275509  0.70659537    -0.05130
N893        N  0.63172432  0.31083964  0.67649650    -0.60770
C894        C  0.64742855  0.34781311  0.65743723     0.96000
C895        C  0.65242340  0.34617502  0.85361960     0.95780
N896        N  0.69679937  0.16660970  0.80134572    -0.06360
N897        N  0.68952128  0.13660314  0.83103167    -0.58870
N898        N  0.66092746  0.19887539  0.70530844    -0.04480
N899        N  0.62998108  0.19231038  0.67559703    -0.60120
N900        N  0.69247014  0.16835508  0.70325406    -0.06390
N901        N  0.68399196  0.14060081  0.67175593    -0.59140
N902        N  0.66579737  0.19771023  0.80304674    -0.04120
N903        N  0.63712984  0.18984552  0.83413583    -0.60210
Mn904      Mn  0.66228065  0.25001604  0.75484047     1.18440
C905        C  0.65278488  0.15205346  0.85172452     0.98090
C906        C  0.64518066  0.15623556  0.65463595     0.98750
N907        N  0.80380116  0.32993626  0.80103768    -0.06410
N908        N  0.81212152  0.35672545  0.83343211    -0.62720
N909        N  0.83039608  0.30342383  0.70016788    -0.05210
N910        N  0.85968900  0.31401223  0.67037530    -0.63390
N911        N  0.79908332  0.33410338  0.70299443    -0.05910
N912        N  0.80625334  0.36581605  0.67499928    -0.62980
N913        N  0.83566666  0.29977171  0.79794174    -0.04810
N914        N  0.86647570  0.30561536  0.82797185    -0.63670
Mn915      Mn  0.74853901  0.33335075  0.75384123     1.10660
C916        C  0.85103469  0.34081925  0.85022905     0.99310
C917        C  0.84408279  0.35292936  0.65462176     0.99390
N918        N  0.79821619  0.16677198  0.69928462    -0.05920
N919        N  0.80532807  0.13553326  0.67075811    -0.61290
N920        N  0.83580799  0.19594534  0.79484315    -0.05240
N921        N  0.86793221  0.18663015  0.82278847    -0.58020
N922        N  0.80358484  0.16612883  0.79640258    -0.06550
N923        N  0.81309621  0.13604089  0.82538947    -0.60860
N924        N  0.82980031  0.19727155  0.69723286    -0.05540
N925        N  0.85902268  0.18715346  0.66701396    -0.58050
Mn926      Mn  0.74767321  0.16575361  0.75019129     1.20190
Mn927      Mn  0.83434968  0.24920948  0.74712010     1.10090
Cl928      Cl  0.74834940  0.24954520  0.75136368    -0.86020
C929        C  0.84316145  0.14855186  0.65066299     0.96320
C930        C  0.85309802  0.14936409  0.84197296     0.96110
C931        C  0.95297350  0.45548857  0.96696572    -0.02540
C932        C  0.95098374  0.03782377  0.96385179    -0.02540
C933        C  0.55153724  0.45933544  0.97081766    -0.02540
C934        C  0.54809674  0.04124166  0.96728721    -0.02540
C935        C  0.97793303  0.99665501  0.94887330     0.00510
C936        C  0.52491898  0.99835631  0.95074955     0.00510
C937        C  0.95077067  0.45864764  0.53375938    -0.02540
C938        C  0.54958053  0.46145194  0.53711498    -0.02540
C939        C  0.52397101  0.43532510  0.50373156     0.00510
C940        C  0.97916228  0.43338197  0.50219368     0.00510
C941        C  0.54641019  0.04370434  0.53454716    -0.02540
C942        C  0.97482863  0.00098792  0.55060074     0.00510
C943        C  0.52196630  0.00224179  0.55256619     0.00510
C944        C  0.57794137  0.02394167  0.50229538     0.00510
C945        C  0.57972774  0.48074816  0.50434781     0.00510
C946        C  0.97577963  0.06401663  0.49745697     0.00510
C947        C  0.52005254  0.06582553  0.49929838     0.00510
C948        C  0.94873449  0.04110063  0.53075418    -0.02540
C949        C  0.92162521  0.47646728  0.49859686     0.00510
C950        C  0.91987466  0.01979177  0.49701677     0.00530
C951        C  0.92190802  0.37535892  0.87357463    -0.12320
C952        C  0.87758681  0.36397414  0.88335207     0.04690
C953        C  0.85854498  0.37958232  0.92151850    -0.07610
C954        C  0.88472306  0.40644965  0.94862615    -0.08350
C955        C  0.92805946  0.42236889  0.93702324    -0.02900
C956        C  0.94650475  0.40557876  0.89847044     0.03910
N957        N  0.98564137  0.42415810  0.87939963     0.66420
H958        H  0.93586148  0.36449250  0.84346179     0.15320
H959        H  0.86978469  0.41600934  0.97857013     0.15030
N960        N  0.81292268  0.36890164  0.93328882     0.74130
O961        O  0.01326432  0.39854218  0.86138917    -0.39330
O962        O  0.98180713  0.46267360  0.86484525    -0.39270
O963        O  0.79586682  0.33200836  0.92342778    -0.39970
O964        O  0.79034764  0.39535773  0.95592879    -0.40040
C965        C  0.94045521  0.11059184  0.92375277    -0.12320
C966        C  0.92750841  0.06602718  0.92963246     0.04690
C967        C  0.89146029  0.04976232  0.90439124    -0.07610
C968        C  0.86838082  0.07781236  0.87655388    -0.08350
C969        C  0.87940373  0.12260920  0.87289879    -0.02900
C970        C  0.91590655  0.13940924  0.89715184     0.03910
N971        N  0.92684775  0.18571680  0.89741879     0.66420
H972        H  0.96877721  0.12401975  0.94134305     0.15320
H973        H  0.84103497  0.06403851  0.85770619     0.15030
N974        N  0.87658584  0.00507231  0.90662953     0.74130
O975        O  0.89606341  0.21403581  0.90286559    -0.39330
O976        O  0.96749921  0.19784596  0.90040849    -0.39270
O977        O  0.84577608  0.99576626  0.93266619    -0.39970
O978        O  0.88112726  0.98107277  0.87400236    -0.40040
C979        C  0.56675001  0.38510636  0.93571690    -0.12320
C980        C  0.57996121  0.42953247  0.94184320     0.04690
C981        C  0.62043471  0.44385683  0.92189457    -0.07610
C982        C  0.64290086  0.41561357  0.89387089    -0.08350
C983        C  0.62793006  0.37251342  0.88590667    -0.02900
C984        C  0.59010040  0.35667657  0.90825608     0.03910
N985        N  0.57417578  0.31228531  0.90316787     0.66420
H986        H  0.53685333  0.37233530  0.95101116     0.15320
H987        H  0.67315145  0.42768911  0.87858712     0.15030
N988        N  0.64206549  0.48502457  0.93179058     0.74130
O989        O  0.57350810  0.28692722  0.93503744    -0.39330
O990        O  0.55129748  0.30218285  0.87055544    -0.39270
O991        O  0.66363645  0.48801575  0.96645169    -0.39970
O992        O  0.65429451  0.50938364  0.90140083    -0.40040
C993        C  0.91429286  0.36945627  0.61580697    -0.12320
C994        C  0.86928554  0.38040095  0.62349232     0.04690
C995        C  0.85038682  0.41667721  0.60134070    -0.07610
C996        C  0.87678712  0.44011292  0.57196933    -0.08350
C997        C  0.92298000  0.43037330  0.56526245    -0.02900
C998        C  0.94104443  0.39363136  0.58764234     0.03910
N999        N  0.98598056  0.37841447  0.58176381     0.66420
H1000       H  0.92944424  0.34148262  0.63203243     0.15320
H1001       H  0.86085989  0.46725910  0.55520178     0.15030
N1002       N  0.80471656  0.43052134  0.60799222     0.74130
O1003       O  0.01087885  0.37547576  0.61438283    -0.39330
O1004       O  0.99346554  0.35276289  0.55083664    -0.39270
O1005       O  0.79412570  0.44841291  0.64287486    -0.39970
O1006       O  0.77856314  0.43479565  0.57639425    -0.40040
C1007       C  0.59412187  0.11038459  0.95119533    -0.12320
C1008       C  0.57241601  0.07198057  0.93559147     0.04690
C1009       C  0.57471168  0.06405549  0.89116595    -0.07610
C1010       C  0.60287136  0.08965405  0.86556771    -0.08350
C1011       C  0.62666491  0.12560297  0.88205916    -0.02900
C1012       C  0.62103115  0.13747674  0.92520465     0.03910
N1013       N  0.64206529  0.17630283  0.94326987     0.66420
H1014       H  0.58972738  0.11982847  0.98398373     0.15320
H1015       H  0.60458338  0.08247965  0.83174565     0.15030
N1016       N  0.54605478  0.03316600  0.87021985     0.74130
O1017       O  0.62632453  0.19375277  0.97660888    -0.39330
O1018       O  0.67779152  0.19196738  0.92767318    -0.39270
O1019       O  0.50646162  0.04551536  0.86119466    -0.39970
O1020       O  0.56369257  0.00236081  0.84879336    -0.40040
C1021       C  0.58732928  0.38818877  0.55734661    -0.12320
C1022       C  0.57698306  0.43253788  0.56856538     0.04690
C1023       C  0.59432881  0.44812067  0.60791806    -0.07610
C1024       C  0.61536244  0.41900383  0.63627021    -0.08350
C1025       C  0.62183609  0.37446752  0.62633979    -0.02900
C1026       C  0.60813019  0.35868645  0.58599370     0.03910
N1027       N  0.61552479  0.31359314  0.57302376     0.66420
H1028       H  0.57774063  0.37539956  0.52645994     0.15320
H1029       H  0.62856762  0.43201667  0.66605130     0.15030
N1030       N  0.59858312  0.49392623  0.61716835     0.74130
O1031       O  0.60628348  0.28215039  0.59783143    -0.39330
O1032       O  0.62432886  0.30487522  0.53461767    -0.39270
O1033       O  0.57988041  0.50859871  0.65029744    -0.39970
O1034       O  0.63425453  0.51247618  0.60481375    -0.40040
C1035       C  0.89178188  0.14232818  0.58676324    -0.12320
C1036       C  0.86740884  0.12124194  0.61880554     0.04690
C1037       C  0.86983778  0.07473324  0.62191345    -0.07610
C1038       C  0.89722531  0.05084665  0.59385289    -0.08350
C1039       C  0.92148030  0.07122738  0.56099528    -0.02900
C1040       C  0.91858888  0.11842122  0.55798036     0.03910
N1041       N  0.94450063  0.14367052  0.52842217     0.66420
H1042       H  0.89094369  0.17810920  0.58463665     0.15320
H1043       H  0.90062646  0.01588742  0.59896781     0.15030
N1044       N  0.84647248  0.05112774  0.65453978     0.74130
O1045       O  0.92418794  0.16952922  0.50328032    -0.39330
O1046       O  0.98568431  0.15057876  0.53642322    -0.39270
O1047       O  0.80418135  0.04689742  0.65204909    -0.39970
O1048       O  0.86840492  0.02661169  0.67974061    -0.40040
C1049       C  0.61575673  0.08858550  0.55741553    -0.12320
C1050       C  0.57050367  0.07575664  0.56579084     0.04690
C1051       C  0.54983094  0.09410747  0.60277935    -0.07610
C1052       C  0.57447875  0.12283193  0.62923198    -0.08350
C1053       C  0.61951848  0.13302526  0.62129187    -0.02900
C1054       C  0.64030055  0.11662964  0.58444306     0.03910
N1055       N  0.68595144  0.12838913  0.57366260     0.66420
H1056       H  0.63329264  0.07636588  0.52974380     0.15320
H1057       H  0.55904411  0.13503428  0.65819834     0.15030
N1058       N  0.50542688  0.08247458  0.61662706     0.74130
O1059       O  0.70985332  0.10242557  0.55173386    -0.39330
O1060       O  0.70095819  0.16650532  0.58208249    -0.39270
O1061       O  0.49816040  0.04358258  0.62922455    -0.39970
O1062       O  0.48043155  0.11282079  0.63093838    -0.40040
N1063       N  0.69361158  0.83320793  0.20650954    -0.06170
N1064       N  0.68567784  0.86252265  0.17637242    -0.58290
N1065       N  0.66588501  0.80080966  0.30444910    -0.05850
N1066       N  0.63657372  0.80893733  0.33495972    -0.60420
N1067       N  0.69762879  0.83106222  0.30418628    -0.05450
N1068       N  0.69046631  0.86047262  0.33439813    -0.58270
N1069       N  0.66195763  0.80276099  0.20659127    -0.05130
N1070       N  0.63173119  0.81083915  0.17648515    -0.60770
C1071       C  0.64744465  0.84780364  0.15741639     0.96000
C1072       C  0.65241384  0.84618251  0.35361859     0.95780
N1073       N  0.69679183  0.66661236  0.30133471    -0.06360
N1074       N  0.68951211  0.63660360  0.33101801    -0.58870
N1075       N  0.66091512  0.69888391  0.20530673    -0.04480
N1076       N  0.62995448  0.69231647  0.17560882    -0.60120
N1077       N  0.69245793  0.66836388  0.20324243    -0.06390
N1078       N  0.68396467  0.64060754  0.17174854    -0.59140
N1079       N  0.66579401  0.69771672  0.30304140    -0.04120
N1080       N  0.63712822  0.68985267  0.33413186    -0.60210
Mn1081     Mn  0.66227675  0.75002384  0.25483833     1.18440
C1082       C  0.65277941  0.65205641  0.35171492     0.98090
C1083       C  0.64514406  0.65624091  0.15464423     0.98750
N1084       N  0.80379521  0.82993967  0.30104173    -0.06410
N1085       N  0.81211597  0.85673028  0.33343501    -0.62720
N1086       N  0.83040049  0.80342789  0.20017445    -0.05210
N1087       N  0.85969704  0.81401662  0.17038472    -0.63390
N1088       N  0.79908730  0.83410745  0.20299850    -0.05910
N1089       N  0.80626051  0.86582036  0.17500442    -0.62980
N1090       N  0.83565943  0.79977344  0.29794823    -0.04810
N1091       N  0.86646794  0.80561746  0.32797867    -0.63670
Mn1092     Mn  0.74853697  0.83335594  0.25384119     1.10660
C1093       C  0.85102799  0.84082316  0.35023364     0.99310
C1094       C  0.84409180  0.85293343  0.15462986     0.99390
N1095       N  0.79821972  0.66677594  0.19927946    -0.05920
N1096       N  0.80534784  0.63553120  0.17076199    -0.61290
N1097       N  0.83579996  0.69594531  0.29484699    -0.05240
N1098       N  0.86792009  0.68663141  0.32279722    -0.58020
N1099       N  0.80357887  0.66612593  0.29639926    -0.06550
N1100       N  0.81308840  0.63603727  0.32538688    -0.60860
N1101       N  0.82980552  0.69727498  0.19723700    -0.05540
N1102       N  0.85904367  0.68715106  0.16703363    -0.58050
Mn1103     Mn  0.74766748  0.66575649  0.25018124     1.20190
Mn1104     Mn  0.83434692  0.74921191  0.24712591     1.10090
Cl1105     Cl  0.74834596  0.74954911  0.25136137    -0.86020
C1106       C  0.84319254  0.64854623  0.15068216     0.96320
C1107       C  0.85308651  0.64936305  0.34197809     0.96110
C1108       C  0.95296840  0.95549075  0.46697021    -0.02540
C1109       C  0.95098349  0.53782145  0.46385843    -0.02540
C1110       C  0.55152814  0.95933307  0.47083303    -0.02540
C1111       C  0.54809898  0.54124314  0.46727972    -0.02540
C1112       C  0.97793413  0.49665563  0.44887053     0.00510
C1113       C  0.52492150  0.49835822  0.45074093     0.00510
C1114       C  0.95075837  0.95866120  0.03376346    -0.02540
C1115       C  0.54956038  0.96146340  0.03713793    -0.02540
C1116       C  0.52395827  0.93533011  0.00375068     0.00510
C1117       C  0.97915113  0.93338913  0.00220519     0.00510
C1118       C  0.54641704  0.54369596  0.03454210    -0.02540
C1119       C  0.97484685  0.50097001  0.05060059     0.00510
C1120       C  0.52198436  0.50222405  0.05255592     0.00510
C1121       C  0.57795376  0.52394546  0.00228580     0.00510
C1122       C  0.57971219  0.98074658  0.00436575     0.00510
C1123       C  0.97578526  0.56400698  0.99746317     0.00510
C1124       C  0.52005646  0.56581626  0.99929688     0.00510
C1125       C  0.94875227  0.54108601  0.03076681    -0.02540
C1126       C  0.92161636  0.97647426  0.99859449     0.00510
C1127       C  0.91988207  0.51978541  0.99702938     0.00530
C1128       C  0.92190234  0.87536183  0.37357872    -0.12320
C1129       C  0.87758060  0.86397824  0.38335602     0.04690
C1130       C  0.85853925  0.87958619  0.42152263    -0.07610
C1131       C  0.88471844  0.90645141  0.44863102    -0.08350
C1132       C  0.92805553  0.92236944  0.43702866    -0.02900
C1133       C  0.94650034  0.90557993  0.39847550     0.03910
N1134       N  0.98563906  0.92415705  0.37940637     0.66420
H1135       H  0.93585565  0.86449542  0.34346580     0.15320
H1136       H  0.86978017  0.91601087  0.47857507     0.15030
N1137       N  0.81291607  0.86890805  0.43329212     0.74130
O1138       O  0.01326286  0.89853902  0.36139987    -0.39330
O1139       O  0.98180764  0.96267199  0.36484964    -0.39270
O1140       O  0.79585818  0.83201575  0.42343082    -0.39970
O1141       O  0.79034193  0.89536574  0.45593116    -0.40040
C1142       C  0.94043707  0.61059818  0.42377275    -0.12320
C1143       C  0.92750062  0.56602934  0.42964466     0.04690
C1144       C  0.89145667  0.54976233  0.40439877    -0.07610
C1145       C  0.86837513  0.57781133  0.37656086    -0.08350
C1146       C  0.87939067  0.62261013  0.37290926    -0.02900
C1147       C  0.91588626  0.63941416  0.39717058     0.03910
N1148       N  0.92681878  0.68572371  0.39744294     0.66420
H1149       H  0.96875427  0.62402906  0.44136774     0.15320
H1150       H  0.84103382  0.56403477  0.35770911     0.15030
N1151       N  0.87658754  0.50507061  0.40663331     0.74130
O1152       O  0.89602771  0.71403698  0.40288353    -0.39330
O1153       O  0.96746729  0.69786019  0.40044155    -0.39270
O1154       O  0.84578013  0.49575891  0.43267054    -0.39970
O1155       O  0.88112961  0.48107502  0.37400350    -0.40040
C1156       C  0.56674753  0.88510266  0.43573310    -0.12320
C1157       C  0.57995387  0.92953016  0.44185842     0.04690
C1158       C  0.62041798  0.94386167  0.42189777    -0.07610
C1159       C  0.64288303  0.91562161  0.39386954    -0.08350
C1160       C  0.62791929  0.87251843  0.38590893    -0.02900
C1161       C  0.59009644  0.85667619  0.40826632     0.03910
N1162       N  0.57417679  0.81228292  0.40318024     0.66420
H1163       H  0.53685615  0.87232825  0.45103400     0.15320
H1164       H  0.67312689  0.92770274  0.37857805     0.15030
N1165       N  0.64203894  0.98503709  0.43178211     0.74130
O1166       O  0.57350704  0.78692810  0.43505215    -0.39330
O1167       O  0.55130273  0.80217547  0.37056662    -0.39270
O1168       O  0.66361147  0.98804343  0.46644106    -0.39970
O1169       O  0.65425775  0.00939195  0.40138542    -0.40040
C1170       C  0.91431433  0.86948760  0.11584104    -0.12320
C1171       C  0.86929467  0.88040634  0.12350197     0.04690
C1172       C  0.85038099  0.91665986  0.10132846    -0.07610
C1173       C  0.87677765  0.94010443  0.07196086    -0.08350
C1174       C  0.92297805  0.93038620  0.06527172    -0.02900
C1175       C  0.94106123  0.89366601  0.08767370     0.03910
N1176       N  0.98601021  0.87847190  0.08181157     0.66420
H1177       H  0.92947610  0.84153264  0.13208485     0.15320
H1178       H  0.86084346  0.96723016  0.05518397     0.15030
N1179       N  0.80469450  0.93046874  0.10794796     0.74130
O1180       O  0.01090545  0.87556073  0.11443492    -0.39330
O1181       O  0.99352330  0.85281833  0.05089219    -0.39270
O1182       O  0.79407168  0.94839056  0.14280752    -0.39970
O1183       O  0.77855031  0.93468136  0.07633560    -0.40040
C1184       C  0.59405246  0.61043069  0.45116726    -0.12320
C1185       C  0.57240463  0.57198855  0.43557936     0.04690
C1186       C  0.57474315  0.56403126  0.39116176    -0.07610
C1187       C  0.60291080  0.58962528  0.36556747    -0.08350
C1188       C  0.62665927  0.62560719  0.38204995    -0.02900
C1189       C  0.62096622  0.63751984  0.42517824     0.03910
N1190       N  0.64194679  0.67638127  0.44322811     0.66420
H1191       H  0.58960183  0.61991196  0.48393841     0.15320
H1192       H  0.60465611  0.58242599  0.33175197     0.15030
N1193       N  0.54609936  0.53313238  0.37021299     0.74130
O1194       O  0.62615279  0.69385261  0.47653410    -0.39330
O1195       O  0.67768268  0.69205337  0.42765784    -0.39270
O1196       O  0.50651414  0.54548264  0.36115682    -0.39970
O1197       O  0.56374841  0.50231378  0.34881268    -0.40040
C1198       C  0.58741568  0.88824538  0.05731453    -0.12320
C1199       C  0.57696243  0.93255479  0.06859348     0.04690
C1200       C  0.59417357  0.94808526  0.10802013    -0.07610
C1201       C  0.61524728  0.91895929  0.13633662    -0.08350
C1202       C  0.62184588  0.87446099  0.12632836    -0.02900
C1203       C  0.60823036  0.85872659  0.08593825     0.03910
N1204       N  0.61573160  0.81366860  0.07290110     0.66420
H1205       H  0.57789596  0.87549761  0.02639385     0.15320
H1206       H  0.62835166  0.93193420  0.16617262     0.15030
N1207       N  0.59816480  0.99387428  0.11745239     0.74130
O1208       O  0.60666647  0.78216438  0.09769552    -0.39330
O1209       O  0.62449580  0.80502256  0.03447165    -0.39270
O1210       O  0.57911429  0.00834161  0.15048512    -0.39970
O1211       O  0.63388274  0.01260051  0.10546429    -0.40040
C1212       C  0.89186350  0.64232172  0.08681838    -0.12320
C1213       C  0.86745788  0.62123174  0.11883839     0.04690
C1214       C  0.86987253  0.57472452  0.12193874    -0.07610
C1215       C  0.89726434  0.55081971  0.09388372    -0.08350
C1216       C  0.92152577  0.57121477  0.06102839    -0.02900
C1217       C  0.91867138  0.61840948  0.05803904     0.03910
N1218       N  0.94461668  0.64365936  0.02850684     0.66420
H1219       H  0.89104549  0.67808918  0.08470456     0.15320
H1220       H  0.90065033  0.51594829  0.09898598     0.15030
N1221       N  0.84648952  0.55111868  0.15455472     0.74130
O1222       O  0.92433696  0.66954132  0.00336395    -0.39330
O1223       O  0.98580033  0.65053690  0.03653340    -0.39270
O1224       O  0.80419785  0.54689717  0.15204766    -0.39970
O1225       O  0.86840603  0.52660400  0.17976722    -0.40040
C1226       C  0.61569176  0.58870610  0.05735758    -0.12320
C1227       C  0.57048797  0.57575999  0.06578816     0.04690
C1228       C  0.54983878  0.59400113  0.10283709    -0.07610
C1229       C  0.57446518  0.62274033  0.12929390    -0.08350
C1230       C  0.61947156  0.63303716  0.12130272    -0.02900
C1231       C  0.64022583  0.61674622  0.08439689     0.03910
N1232       N  0.68584012  0.62860120  0.07357517     0.66420
H1233       H  0.63320481  0.57655811  0.02964398     0.15320
H1234       H  0.55905383  0.63485949  0.15830354     0.15030
N1235       N  0.50550317  0.58220881  0.11675357     0.74130
O1236       O  0.70974739  0.60272470  0.05155701    -0.39330
O1237       O  0.70080455  0.66671758  0.08206205    -0.39270
O1238       O  0.49841254  0.54329061  0.12937099    -0.39970
O1239       O  0.48042177  0.61246549  0.13110497    -0.40040
N1240       N  0.69361158  0.83320793  0.70650953    -0.06170
N1241       N  0.68567784  0.86252265  0.67637242    -0.58290
N1242       N  0.66588501  0.80080966  0.80444910    -0.05850
N1243       N  0.63657372  0.80893733  0.83495972    -0.60420
N1244       N  0.69762879  0.83106222  0.80418628    -0.05450
N1245       N  0.69046631  0.86047262  0.83439813    -0.58270
N1246       N  0.66195763  0.80276099  0.70659127    -0.05130
N1247       N  0.63173119  0.81083914  0.67648515    -0.60770
C1248       C  0.64744465  0.84780363  0.65741638     0.96000
C1249       C  0.65241384  0.84618251  0.85361859     0.95780
N1250       N  0.69679183  0.66661236  0.80133471    -0.06360
N1251       N  0.68951211  0.63660361  0.83101801    -0.58870
N1252       N  0.66091512  0.69888391  0.70530673    -0.04480
N1253       N  0.62995448  0.69231647  0.67560882    -0.60120
N1254       N  0.69245793  0.66836388  0.70324243    -0.06390
N1255       N  0.68396467  0.64060754  0.67174855    -0.59140
N1256       N  0.66579401  0.69771672  0.80304140    -0.04120
N1257       N  0.63712822  0.68985267  0.83413186    -0.60210
Mn1258     Mn  0.66227675  0.75002384  0.75483833     1.18440
C1259       C  0.65277940  0.65205642  0.85171492     0.98090
C1260       C  0.64514406  0.65624091  0.65464423     0.98750
N1261       N  0.80379520  0.82993967  0.80104172    -0.06410
N1262       N  0.81211597  0.85673028  0.83343501    -0.62720
N1263       N  0.83040049  0.80342789  0.70017445    -0.05210
N1264       N  0.85969704  0.81401662  0.67038472    -0.63390
N1265       N  0.79908730  0.83410745  0.70299850    -0.05910
N1266       N  0.80626052  0.86582036  0.67500442    -0.62980
N1267       N  0.83565943  0.79977344  0.79794823    -0.04810
N1268       N  0.86646793  0.80561746  0.82797867    -0.63670
Mn1269     Mn  0.74853696  0.83335594  0.75384118     1.10660
C1270       C  0.85102798  0.84082316  0.85023364     0.99310
C1271       C  0.84409180  0.85293343  0.65462986     0.99390
N1272       N  0.79821972  0.66677594  0.69927947    -0.05920
N1273       N  0.80534784  0.63553121  0.67076200    -0.61290
N1274       N  0.83579995  0.69594531  0.79484700    -0.05240
N1275       N  0.86792008  0.68663142  0.82279723    -0.58020
N1276       N  0.80357887  0.66612593  0.79639926    -0.06550
N1277       N  0.81308839  0.63603727  0.82538689    -0.60860
N1278       N  0.82980552  0.69727498  0.69723701    -0.05540
N1279       N  0.85904367  0.68715106  0.66703364    -0.58050
Mn1280     Mn  0.74766748  0.66575649  0.75018124     1.20190
Mn1281     Mn  0.83434691  0.74921191  0.74712591     1.10090
Cl1282     Cl  0.74834596  0.74954912  0.75136138    -0.86020
C1283       C  0.84319254  0.64854624  0.65068216     0.96320
C1284       C  0.85308651  0.64936306  0.84197810     0.96110
C1285       C  0.95296840  0.95549075  0.96697021    -0.02540
C1286       C  0.95098350  0.53782144  0.96385843    -0.02540
C1287       C  0.55152814  0.95933307  0.97083303    -0.02540
C1288       C  0.54809898  0.54124314  0.96727972    -0.02540
C1289       C  0.97793413  0.49665562  0.94887053     0.00510
C1290       C  0.52492151  0.49835821  0.95074093     0.00510
C1291       C  0.95075837  0.95866120  0.53376346    -0.02540
C1292       C  0.54956038  0.96146340  0.53713793    -0.02540
C1293       C  0.52395826  0.93533012  0.50375068     0.00510
C1294       C  0.97915113  0.93338914  0.50220519     0.00510
C1295       C  0.54641704  0.54369596  0.53454210    -0.02540
C1296       C  0.97484685  0.50097001  0.55060060     0.00510
C1297       C  0.52198436  0.50222405  0.55255592     0.00510
C1298       C  0.57795376  0.52394546  0.50228580     0.00510
C1299       C  0.57971219  0.98074658  0.50436575     0.00510
C1300       C  0.97578525  0.56400699  0.49746318     0.00510
C1301       C  0.52005646  0.56581627  0.49929688     0.00510
C1302       C  0.94875227  0.54108602  0.53076682    -0.02540
C1303       C  0.92161636  0.97647426  0.49859449     0.00510
C1304       C  0.91988207  0.51978542  0.49702939     0.00530
C1305       C  0.92190234  0.87536181  0.87357873    -0.12320
C1306       C  0.87758059  0.86397824  0.88335602     0.04690
C1307       C  0.85853923  0.87958620  0.92152262    -0.07610
C1308       C  0.88471843  0.90645143  0.94863102    -0.08350
C1309       C  0.92805553  0.92236944  0.93702866    -0.02900
C1310       C  0.94650034  0.90557991  0.89847551     0.03910
N1311       N  0.98563909  0.92415700  0.87940639     0.66420
H1312       H  0.93585565  0.86449538  0.84346582     0.15320
H1313       H  0.86978015  0.91601089  0.97857506     0.15030
N1314       N  0.81291605  0.86890808  0.93329211     0.74130
O1315       O  0.01326286  0.89853895  0.86139989    -0.39330
O1316       O  0.98180771  0.96267195  0.86484967    -0.39270
O1317       O  0.79585815  0.83201579  0.92343082    -0.39970
O1318       O  0.79034191  0.89536579  0.95593114    -0.40040
C1319       C  0.94043707  0.61059819  0.92377277    -0.12320
C1320       C  0.92750063  0.56602934  0.92964466     0.04690
C1321       C  0.89145669  0.54976233  0.90439875    -0.07610
C1322       C  0.86837514  0.57781134  0.87656086    -0.08350
C1323       C  0.87939066  0.62261014  0.87290927    -0.02900
C1324       C  0.91588625  0.63941418  0.89717060     0.03910
N1325       N  0.92681875  0.68572372  0.89744297     0.66420
H1326       H  0.96875426  0.62402907  0.94136776     0.15320
H1327       H  0.84103384  0.56403477  0.85770909     0.15030
N1328       N  0.87658759  0.50507060  0.90663326     0.74130
O1329       O  0.89602767  0.71403698  0.90288356    -0.39330
O1330       O  0.96746726  0.69786021  0.90044160    -0.39270
O1331       O  0.84578014  0.49575888  0.93267043    -0.39970
O1332       O  0.88112974  0.48107503  0.87400346    -0.40040
C1333       C  0.56674754  0.88510265  0.93573312    -0.12320
C1334       C  0.57995388  0.92953016  0.94185843     0.04690
C1335       C  0.62041798  0.94386167  0.92189777    -0.07610
C1336       C  0.64288303  0.91562161  0.89386954    -0.08350
C1337       C  0.62791929  0.87251843  0.88590894    -0.02900
C1338       C  0.59009645  0.85667618  0.90826633     0.03910
N1339       N  0.57417682  0.81228291  0.90318026     0.66420
H1340       H  0.53685616  0.87232824  0.95103402     0.15320
H1341       H  0.67312688  0.92770274  0.87857805     0.15030
N1342       N  0.64203895  0.98503709  0.93178211     0.74130
O1343       O  0.57350706  0.78692810  0.93505218    -0.39330
O1344       O  0.55130275  0.80217545  0.87056664    -0.39270
O1345       O  0.66361147  0.98804343  0.96644106    -0.39970
O1346       O  0.65425775  0.00939195  0.90138542    -0.40040
C1347       C  0.91431432  0.86948757  0.61584101    -0.12320
C1348       C  0.86929467  0.88040633  0.62350197     0.04690
C1349       C  0.85038100  0.91665987  0.60132848    -0.07610
C1350       C  0.87677766  0.94010446  0.57196089    -0.08350
C1351       C  0.92297806  0.93038620  0.56527172    -0.02900
C1352       C  0.94106123  0.89366599  0.58767368     0.03910
N1353       N  0.98601019  0.87847186  0.58181153     0.66420
H1354       H  0.92947608  0.84153260  0.63208480     0.15320
H1355       H  0.86084348  0.96723019  0.55518402     0.15030
N1356       N  0.80469453  0.93046878  0.60794801     0.74130
O1357       O  0.01090544  0.87556066  0.61443487    -0.39330
O1358       O  0.99352328  0.85281831  0.55089213    -0.39270
O1359       O  0.79407174  0.94839058  0.64280758    -0.39970
O1360       O  0.77855032  0.93468144  0.57633567    -0.40040
C1361       C  0.59405245  0.61043069  0.95116726    -0.12320
C1362       C  0.57240462  0.57198855  0.93557935     0.04690
C1363       C  0.57474315  0.56403126  0.89116176    -0.07610
C1364       C  0.60291079  0.58962528  0.86556746    -0.08350
C1365       C  0.62665926  0.62560720  0.88204994    -0.02900
C1366       C  0.62096621  0.63751985  0.92517824     0.03910
N1367       N  0.64194678  0.67638128  0.94322811     0.66420
H1368       H  0.58960182  0.61991196  0.98393841     0.15320
H1369       H  0.60465611  0.58242599  0.83175197     0.15030
N1370       N  0.54609937  0.53313237  0.87021298     0.74130
O1371       O  0.62615278  0.69385262  0.97653410    -0.39330
O1372       O  0.67768267  0.69205337  0.92765784    -0.39270
O1373       O  0.50651413  0.54548260  0.86115685    -0.39970
O1374       O  0.56374843  0.50231380  0.84881265    -0.40040
C1375       C  0.58741568  0.88824538  0.55731453    -0.12320
C1376       C  0.57696243  0.93255479  0.56859348     0.04690
C1377       C  0.59417356  0.94808525  0.60802013    -0.07610
C1378       C  0.61524728  0.91895929  0.63633662    -0.08350
C1379       C  0.62184588  0.87446098  0.62632836    -0.02900
C1380       C  0.60823036  0.85872659  0.58593824     0.03910
N1381       N  0.61573160  0.81366859  0.57290109     0.66420
H1382       H  0.57789595  0.87549761  0.52639384     0.15320
H1383       H  0.62835165  0.93193419  0.66617262     0.15030
N1384       N  0.59816478  0.99387427  0.61745240     0.74130
O1385       O  0.60666648  0.78216438  0.59769551    -0.39330
O1386       O  0.62449579  0.80502256  0.53447164    -0.39270
O1387       O  0.57911425  0.00834160  0.65048512    -0.39970
O1388       O  0.63388272  0.01260051  0.60546432    -0.40040
C1389       C  0.89186349  0.64232172  0.58681838    -0.12320
C1390       C  0.86745787  0.62123175  0.61883839     0.04690
C1391       C  0.86987254  0.57472452  0.62193875    -0.07610
C1392       C  0.89726434  0.55081974  0.59388372    -0.08350
C1393       C  0.92152576  0.57121478  0.56102839    -0.02900
C1394       C  0.91867136  0.61840949  0.55803904     0.03910
N1395       N  0.94461665  0.64365936  0.52850682     0.66420
H1396       H  0.89104547  0.67808920  0.58470455     0.15320
H1397       H  0.90065035  0.51594822  0.59898600     0.15030
N1398       N  0.84648954  0.55111869  0.65455474     0.74130
O1399       O  0.92433692  0.66954131  0.50336393    -0.39330
O1400       O  0.98580030  0.65053692  0.53653338    -0.39270
O1401       O  0.80419787  0.54689717  0.65204770    -0.39970
O1402       O  0.86840607  0.52660402  0.67976723    -0.40040
C1403       C  0.61569176  0.58870609  0.55735758    -0.12320
C1404       C  0.57048797  0.57575999  0.56578816     0.04690
C1405       C  0.54983878  0.59400113  0.60283709    -0.07610
C1406       C  0.57446518  0.62274034  0.62929390    -0.08350
C1407       C  0.61947156  0.63303716  0.62130272    -0.02900
C1408       C  0.64022584  0.61674621  0.58439689     0.03910
N1409       N  0.68584013  0.62860119  0.57357517     0.66420
H1410       H  0.63320481  0.57655810  0.52964398     0.15320
H1411       H  0.55905384  0.63485949  0.65830353     0.15030
N1412       N  0.50550317  0.58220882  0.61675357     0.74130
O1413       O  0.70974739  0.60272468  0.55155702    -0.39330
O1414       O  0.70080457  0.66671756  0.58206205    -0.39270
O1415       O  0.49841253  0.54329063  0.62937098    -0.39970
O1416       O  0.48042177  0.61246551  0.63110495    -0.40040
loop_ 
_geom_bond_atom_site_label_1 
_geom_bond_atom_site_label_2 
_geom_bond_distance 
_geom_bond_site_symmetry_2 
_ccdc_geom_bond_type 
N1            N2   1.318       .  A
N1            N7   1.315       .  A
N1          Mn30   2.198       .  S
N2            C9   1.352       .  A
N3            N5   1.313       .  A
N3            N4   1.320       .  A
N3          Mn19   2.188       .  S
N4           C10   1.352       .  A
N5            N6   1.317       .  A
N5          Mn30   2.193       .  S
N6           C10   1.354       .  A
N7            N8   1.322       .  A
N7          Mn19   2.202       .  S
N8            C9   1.353       .  A
C9          C140   1.474       .  S
C10          C98   1.481       .  S
N11          N17   1.315       .  A
N11          N12   1.321       .  A
N11         Mn41   2.210       .  S
N12          C20   1.354       .  A
N13          N14   1.319       .  A
N13          N15   1.315       .  A
N13         Mn19   2.191       .  S
N14          C21   1.351       .  A
N15          N16   1.319       .  A
N15         Mn41   2.197       .  S
N16          C21   1.352       .  A
N17          N18   1.320       .  A
N17         Mn19   2.193       .  S
N18          C20   1.351       .  A
Mn19        Cl43   2.554       .  S
C20         C126   1.469       .  S
C21         C168   1.468       .  S
N22          N23   1.321       .  A
N22          N28   1.316       .  A
N22         Mn30   2.205       .  S
N23          C31   1.354       .  A
N24          N26   1.315       .  A
N24          N25   1.320       .  A
N24         Mn42   2.209       .  S
N25          C32   1.357       .  A
N26          N27   1.320       .  A
N26         Mn30   2.196       .  S
N27          C32   1.351       .  A
N28          N29   1.321       .  A
N28         Mn42   2.208       .  S
N29          C31   1.353       .  A
Mn30        Cl43   2.535       .  S
C31          C67   1.477       .  S
C32         C109   1.489       .  S
N33          N34   1.318       .  A
N33          N39   1.317       .  A
N33         Mn41   2.198       .  S
N34          C44   1.349       .  A
N35          N36   1.322       .  A
N35          N37   1.315       .  A
N35         Mn42   2.202       .  S
N36          C45   1.354       .  A
N37          N38   1.317       .  A
N37         Mn41   2.196       .  S
N38          C45   1.353       .  A
N39          N40   1.324       .  A
N39         Mn42   2.220       .  S
N40          C44   1.358       .  A
Mn41        Cl43   2.534       .  S
Mn42        Cl43   2.553       .  S
C44         C151   1.484       .  S
C45          C84   1.483       .  S
C46          C70   1.556       .  S
C46         C404   1.559       .  S
C46         C232   1.505       .  S
C46         C241   1.503       .  S
C47          C81   1.536       .  S
C47          C50   1.552   1_545  S
C47         C238   1.507       .  S
C47         C242   1.499       .  S
C48          C95   1.534       .  S
C48         C405   1.551       .  S
C48         C231   1.509       .  S
C48         C237   1.488       .  S
C49         C123   1.545       .  S
C49          C51   1.555   1_545  S
C49         C236   1.501       .  S
C49         C239   1.503       .  S
C50         C400   1.559       .  S
C50         C759   1.394       .  D
C51         C402   1.551       .  S
C51         C758   1.394   1_455  D
C52         C112   1.550       .  S
C52          C55   1.510       .  S
C52          C64   1.499   1_554  S
C52         C411   1.556       .  S
C53         C137   1.546       .  S
C53          C54   1.513       .  S
C53          C60   1.487       .  S
C53         C412   1.557       .  S
C54         C225   1.509   1_554  S
C54         C763   1.330   1_455  D
C55         C223   1.505   1_554  S
C55         C762   1.330       .  D
C56         C165   1.550       .  S
C56          C58   1.558       .  S
C56          C59   1.505       .  S
C56          C62   1.508   1_554  S
C57          C63   1.566       .  S
C57         C406   1.556   1_545  S
C57         C766   1.399       .  D
C58         C407   1.557   1_545  S
C58         C765   1.399   1_455  D
C59         C226   1.501   1_554  S
C59         C414   1.309   1_545  D
C60         C225   1.488   1_554  S
C60         C413   1.309       .  D
C61          C63   1.493   1_556  S
C61         C224   1.507       .  S
C61         C770   1.314       .  D
C62         C226   1.503       .  S
C62         C769   1.314   1_455  D
C63         C154   1.545       .  S
C63          C65   1.502   1_554  S
C64         C223   1.503       .  S
C64         C419   1.312       .  D
C65         C224   1.499       .  S
C65         C418   1.312   1_545  D
C66          C67   1.394       .  A
C66          C71   1.403       .  A
C66          H73   1.085       .  S
C67          C68   1.408       .  A
C68          C69   1.406       .  A
C68          N75   1.441       .  S
C69          C70   1.422       .  A
C69          H74   1.080       .  S
C70          C71   1.424       .  A
C71          N72   1.425       .  S
N72          O76   1.262       .  A
N72          O77   1.257       .  A
N75          O78   1.262       .  A
N75          O79   1.263       .  A
C80          C81   1.414       .  A
C80          C85   1.407       .  A
C80          H87   1.081       .  S
C81          C82   1.415       .  A
C82          C83   1.395       .  A
C82          N89   1.424       .  S
C83          C84   1.399       .  A
C83          H88   1.084       .  S
C84          C85   1.414       .  A
C85          N86   1.437       .  S
N86          O90   1.263       .  A
N86          O91   1.263       .  A
N89          O92   1.262   1_545  A
N89          O93   1.262   1_545  A
C94          C95   1.412       .  A
C94          C99   1.402       .  A
C94         H101   1.082       .  S
C95          C96   1.425       .  A
C96          C97   1.396       .  A
C96         N103   1.433       .  S
C97          C98   1.399       .  A
C97         H102   1.083       .  S
C98          C99   1.411       .  A
C99         N100   1.432       .  S
N100        O104   1.262       .  A
N100        O105   1.262       .  A
N103        O106   1.262       .  A
N103        O107   1.262       .  A
C108        C109   1.396       .  A
C108        C113   1.399       .  A
C108        H115   1.084       .  S
C109        C110   1.413       .  A
C110        C111   1.406       .  A
C110        N117   1.433       .  S
C111        C112   1.417       .  A
C111        H116   1.082       .  S
C112        C113   1.418       .  A
C113        N114   1.422       .  S
N114        O118   1.262       .  A
N114        O119   1.262       .  A
N117        O120   1.262       .  A
N117        O121   1.262       .  A
C122        C123   1.413       .  A
C122        C127   1.409       .  A
C122        H129   1.077       .  S
C123        C124   1.417       .  A
C124        C125   1.398       .  A
C124        N131   1.421       .  S
C125        C126   1.394       .  A
C125        H130   1.085       .  S
C126        C127   1.412       .  A
C127        N128   1.443       .  S
N128        O132   1.263       .  A
N128        O133   1.262       .  A
N131        O134   1.262       .  A
N131        O135   1.263       .  A
C136        C137   1.419       .  A
C136        C141   1.407       .  A
C136        H143   1.080       .  S
C137        C138   1.416       .  A
C138        C139   1.397       .  A
C138        N145   1.420       .  S
C139        C140   1.395       .  A
C139        H144   1.085       .  S
C140        C141   1.411       .  A
C141        N142   1.439       .  S
N142        O146   1.262       .  A
N142        O147   1.263       .  A
N145        O148   1.261       .  A
N145        O149   1.261       .  A
C150        C151   1.397       .  A
C150        C155   1.406       .  A
C150        H157   1.084       .  S
C151        C152   1.411       .  A
C152        C153   1.401       .  A
C152        N159   1.432       .  S
C153        C154   1.405       .  A
C153        H158   1.074       .  S
C154        C155   1.433       .  A
C155        N156   1.431       .  S
N156        O160   1.262       .  A
N156        O161   1.262       .  A
N159        O162   1.262       .  A
N159        O163   1.262       .  A
C164        C165   1.423       .  A
C164        C169   1.400       .  A
C164        H171   1.080       .  S
C165        C166   1.428       .  A
C166        C167   1.403       .  A
C166        N173   1.433       .  S
C167        C168   1.394       .  A
C167        H172   1.085       .  S
C168        C169   1.404       .  A
C169        N170   1.442       .  S
N170        O174   1.263       .  A
N170        O175   1.263       .  A
N173        O176   1.261   1_455  A
N173        O177   1.262   1_455  A
N178        N179   1.318       .  A
N178        N184   1.315       .  A
N178       Mn207   2.198       .  S
N179        C186   1.352       .  A
N180        N182   1.313       .  A
N180        N181   1.320       .  A
N180       Mn196   2.188       .  S
N181        C187   1.352       .  A
N182        N183   1.317       .  A
N182       Mn207   2.193       .  S
N183        C187   1.354       .  A
N184        N185   1.322       .  A
N184       Mn196   2.202       .  S
N185        C186   1.353       .  A
C186        C317   1.474       .  S
C187        C275   1.481       .  S
N188        N194   1.315       .  A
N188        N189   1.321       .  A
N188       Mn218   2.210       .  S
N189        C197   1.354       .  A
N190        N191   1.319       .  A
N190        N192   1.315       .  A
N190       Mn196   2.191       .  S
N191        C198   1.351       .  A
N192        N193   1.319       .  A
N192       Mn218   2.197       .  S
N193        C198   1.352       .  A
N194        N195   1.320       .  A
N194       Mn196   2.193       .  S
N195        C197   1.351       .  A
Mn196      Cl220   2.554       .  S
C197        C303   1.469       .  S
C198        C345   1.468       .  S
N199        N200   1.321       .  A
N199        N205   1.316       .  A
N199       Mn207   2.205       .  S
N200        C208   1.354       .  A
N201        N203   1.315       .  A
N201        N202   1.320       .  A
N201       Mn219   2.209       .  S
N202        C209   1.357       .  A
N203        N204   1.320       .  A
N203       Mn207   2.196       .  S
N204        C209   1.351       .  A
N205        N206   1.321       .  A
N205       Mn219   2.208       .  S
N206        C208   1.353       .  A
Mn207      Cl220   2.535       .  S
C208        C244   1.477       .  S
C209        C286   1.489       .  S
N210        N211   1.318       .  A
N210        N216   1.317       .  A
N210       Mn218   2.198       .  S
N211        C221   1.349       .  A
N212        N213   1.322       .  A
N212        N214   1.315       .  A
N212       Mn219   2.202       .  S
N213        C222   1.354       .  A
N214        N215   1.317       .  A
N214       Mn218   2.196       .  S
N215        C222   1.353       .  A
N216        N217   1.324       .  A
N216       Mn219   2.220       .  S
N217        C221   1.358       .  A
Mn218      Cl220   2.534       .  S
Mn219      Cl220   2.553       .  S
C221        C328   1.484       .  S
C222        C261   1.483       .  S
C223        C247   1.556       .  S
C223        C581   1.559       .  S
C224        C258   1.536       .  S
C224        C227   1.552   1_545  S
C225        C272   1.534       .  S
C225        C582   1.551       .  S
C226        C300   1.545       .  S
C226        C228   1.555   1_545  S
C227        C577   1.559       .  S
C227        C936   1.394       .  D
C228        C579   1.551       .  S
C228        C935   1.394   1_455  D
C229        C289   1.550       .  S
C229        C232   1.510       .  S
C229        C588   1.556       .  S
C229        C241   1.499       .  S
C230        C314   1.546       .  S
C230        C231   1.513       .  S
C230        C589   1.557       .  S
C230        C237   1.487       .  S
C231        C940   1.330   1_455  D
C232        C939   1.330       .  D
C233        C342   1.550       .  S
C233        C235   1.558       .  S
C233        C236   1.505       .  S
C233        C239   1.508       .  S
C234        C583   1.556   1_545  S
C234        C240   1.566       .  S
C234        C943   1.399       .  D
C235        C584   1.557   1_545  S
C235        C942   1.399   1_455  D
C236        C591   1.309   1_545  D
C237        C590   1.309       .  D
C238        C240   1.493       .  S
C238        C947   1.314       .  D
C239        C946   1.314   1_455  D
C240        C331   1.545       .  S
C240        C242   1.502       .  S
C241        C596   1.312       .  D
C242        C595   1.312   1_545  D
C243        C244   1.394       .  A
C243        C248   1.403       .  A
C243        H250   1.085       .  S
C244        C245   1.408       .  A
C245        C246   1.406       .  A
C245        N252   1.441       .  S
C246        C247   1.422       .  A
C246        H251   1.080       .  S
C247        C248   1.424       .  A
C248        N249   1.425       .  S
N249        O253   1.262       .  A
N249        O254   1.257       .  A
N252        O255   1.262       .  A
N252        O256   1.263       .  A
C257        C258   1.414       .  A
C257        C262   1.407       .  A
C257        H264   1.081       .  S
C258        C259   1.415       .  A
C259        C260   1.395       .  A
C259        N266   1.424       .  S
C260        C261   1.399       .  A
C260        H265   1.084       .  S
C261        C262   1.414       .  A
C262        N263   1.437       .  S
N263        O267   1.263       .  A
N263        O268   1.263       .  A
N266        O269   1.262   1_545  A
N266        O270   1.262   1_545  A
C271        C272   1.412       .  A
C271        C276   1.402       .  A
C271        H278   1.082       .  S
C272        C273   1.425       .  A
C273        C274   1.396       .  A
C273        N280   1.433       .  S
C274        C275   1.399       .  A
C274        H279   1.083       .  S
C275        C276   1.411       .  A
C276        N277   1.432       .  S
N277        O281   1.262       .  A
N277        O282   1.262       .  A
N280        O283   1.262       .  A
N280        O284   1.262       .  A
C285        C286   1.396       .  A
C285        C290   1.399       .  A
C285        H292   1.084       .  S
C286        C287   1.413       .  A
C287        C288   1.406       .  A
C287        N294   1.433       .  S
C288        C289   1.417       .  A
C288        H293   1.082       .  S
C289        C290   1.418       .  A
C290        N291   1.422       .  S
N291        O295   1.262       .  A
N291        O296   1.262       .  A
N294        O297   1.262       .  A
N294        O298   1.262       .  A
C299        C300   1.413       .  A
C299        C304   1.409       .  A
C299        H306   1.077       .  S
C300        C301   1.417       .  A
C301        C302   1.398       .  A
C301        N308   1.421       .  S
C302        C303   1.394       .  A
C302        H307   1.085       .  S
C303        C304   1.412       .  A
C304        N305   1.443       .  S
N305        O309   1.263       .  A
N305        O310   1.262       .  A
N308        O311   1.262       .  A
N308        O312   1.263       .  A
C313        C314   1.419       .  A
C313        C318   1.407       .  A
C313        H320   1.080       .  S
C314        C315   1.416       .  A
C315        C316   1.397       .  A
C315        N322   1.420       .  S
C316        C317   1.395       .  A
C316        H321   1.085       .  S
C317        C318   1.411       .  A
C318        N319   1.439       .  S
N319        O323   1.262       .  A
N319        O324   1.263       .  A
N322        O325   1.261       .  A
N322        O326   1.261       .  A
C327        C328   1.397       .  A
C327        C332   1.406       .  A
C327        H334   1.084       .  S
C328        C329   1.411       .  A
C329        C330   1.401       .  A
C329        N336   1.432       .  S
C330        C331   1.405       .  A
C330        H335   1.074       .  S
C331        C332   1.433       .  A
C332        N333   1.431       .  S
N333        O337   1.262       .  A
N333        O338   1.262       .  A
N336        O339   1.262       .  A
N336        O340   1.262       .  A
C341        C342   1.423       .  A
C341        C346   1.400       .  A
C341        H348   1.080       .  S
C342        C343   1.428       .  A
C343        C344   1.403       .  A
C343        N350   1.433       .  S
C344        C345   1.394       .  A
C344        H349   1.085       .  S
C345        C346   1.404       .  A
C346        N347   1.442       .  S
N347        O351   1.263       .  A
N347        O352   1.263       .  A
N350        O353   1.261   1_455  A
N350        O354   1.262   1_455  A
N355        N356   1.318       .  A
N355        N361   1.315       .  A
N355       Mn384   2.198       .  S
N356        C363   1.352       .  A
N357        N359   1.313       .  A
N357        N358   1.320       .  A
N357       Mn373   2.188       .  S
N358        C364   1.352       .  A
N359        N360   1.317       .  A
N359       Mn384   2.193       .  S
N360        C364   1.354       .  A
N361        N362   1.322       .  A
N361       Mn373   2.202       .  S
N362        C363   1.353       .  A
C363        C494   1.474       .  S
C364        C452   1.481       .  S
N365        N371   1.315       .  A
N365        N366   1.321       .  A
N365       Mn395   2.210       .  S
N366        C374   1.354       .  A
N367        N368   1.319       .  A
N367        N369   1.315       .  A
N367       Mn373   2.191       .  S
N368        C375   1.351       .  A
N369        N370   1.319       .  A
N369       Mn395   2.197       .  S
N370        C375   1.352       .  A
N371        N372   1.320       .  A
N371       Mn373   2.193       .  S
N372        C374   1.351       .  A
Mn373      Cl397   2.554       .  S
C374        C480   1.469       .  S
C375        C522   1.468       .  S
N376        N377   1.321       .  A
N376        N382   1.316       .  A
N376       Mn384   2.205       .  S
N377        C385   1.354       .  A
N378        N380   1.315       .  A
N378        N379   1.320       .  A
N378       Mn396   2.209       .  S
N379        C386   1.357       .  A
N380        N381   1.320       .  A
N380       Mn384   2.196       .  S
N381        C386   1.351       .  A
N382        N383   1.321       .  A
N382       Mn396   2.208       .  S
N383        C385   1.353       .  A
Mn384      Cl397   2.535       .  S
C385        C421   1.476       .  S
C386        C463   1.489       .  S
N387        N388   1.318       .  A
N387        N393   1.317       .  A
N387       Mn395   2.198       .  S
N388        C398   1.349       .  A
N389        N390   1.322       .  A
N389        N391   1.315       .  A
N389       Mn396   2.202       .  S
N390        C399   1.354       .  A
N391        N392   1.317       .  A
N391       Mn395   2.196       .  S
N392        C399   1.354       .  A
N393        N394   1.324       .  A
N393       Mn396   2.220       .  S
N394        C398   1.357       .  A
Mn395      Cl397   2.534       .  S
Mn396      Cl397   2.553       .  S
C398        C505   1.484       .  S
C399        C438   1.483       .  S
C400        C424   1.556       .  S
C400        C586   1.505       .  S
C400        C595   1.503       .  S
C401        C435   1.536       .  S
C401        C404   1.552       .  S
C401        C592   1.507       .  S
C401        C596   1.499       .  S
C402        C449   1.534       .  S
C402        C585   1.509       .  S
C402        C591   1.488       .  S
C403        C477   1.545       .  S
C403        C405   1.555       .  S
C403        C590   1.502       .  S
C403        C593   1.503       .  S
C404       C1113   1.394       .  D
C405       C1112   1.394   1_455  D
C406        C466   1.550       .  S
C406        C409   1.510       .  S
C406        C418   1.499   1_554  S
C407        C491   1.546       .  S
C407        C408   1.513       .  S
C407        C414   1.487       .  S
C408        C579   1.509   1_554  S
C408       C1117   1.330   1_455  D
C409        C577   1.505   1_554  S
C409       C1116   1.330       .  D
C410        C519   1.550       .  S
C410        C412   1.558       .  S
C410        C413   1.505       .  S
C410        C416   1.508   1_554  S
C411        C417   1.566       .  S
C411       C1120   1.399       .  D
C412       C1119   1.399   1_455  D
C413        C580   1.502   1_554  S
C414        C579   1.488   1_554  S
C415        C578   1.507       .  S
C415        C417   1.493   1_556  S
C415       C1124   1.314       .  D
C416        C580   1.503       .  S
C416       C1123   1.314   1_455  D
C417        C508   1.545       .  S
C417        C419   1.502   1_554  S
C418        C577   1.503       .  S
C419        C578   1.499       .  S
C420        C421   1.394       .  A
C420        C425   1.403       .  A
C420        H427   1.085       .  S
C421        C422   1.408       .  A
C422        C423   1.406       .  A
C422        N429   1.441       .  S
C423        C424   1.422       .  A
C423        H428   1.080       .  S
C424        C425   1.424       .  A
C425        N426   1.425       .  S
N426        O430   1.262       .  A
N426        O431   1.257       .  A
N429        O432   1.262       .  A
N429        O433   1.263       .  A
C434        C435   1.414       .  A
C434        C439   1.407       .  A
C434        H441   1.081       .  S
C435        C436   1.415       .  A
C436        C437   1.395       .  A
C436        N443   1.424       .  S
C437        C438   1.399       .  A
C437        H442   1.084       .  S
C438        C439   1.414       .  A
C439        N440   1.437       .  S
N440        O444   1.263       .  A
N440        O445   1.263       .  A
N443        O446   1.262       .  A
N443        O447   1.262       .  A
C448        C449   1.412       .  A
C448        C453   1.402       .  A
C448        H455   1.082       .  S
C449        C450   1.425       .  A
C450        C451   1.396       .  A
C450        N457   1.433       .  S
C451        C452   1.399       .  A
C451        H456   1.083       .  S
C452        C453   1.411       .  A
C453        N454   1.432       .  S
N454        O458   1.262       .  A
N454        O459   1.262       .  A
N457        O460   1.262       .  A
N457        O461   1.262   1_565  A
C462        C463   1.396       .  A
C462        C467   1.399       .  A
C462        H469   1.084       .  S
C463        C464   1.413       .  A
C464        C465   1.406       .  A
C464        N471   1.433       .  S
C465        C466   1.417       .  A
C465        H470   1.082       .  S
C466        C467   1.418       .  A
C467        N468   1.422       .  S
N468        O472   1.262       .  A
N468        O473   1.262       .  A
N471        O474   1.262       .  A
N471        O475   1.262       .  A
C476        C477   1.413       .  A
C476        C481   1.409       .  A
C476        H483   1.077       .  S
C477        C478   1.417       .  A
C478        C479   1.398       .  A
C478        N485   1.421       .  S
C479        C480   1.394       .  A
C479        H484   1.085       .  S
C480        C481   1.412       .  A
C481        N482   1.443       .  S
N482        O486   1.263       .  A
N482        O487   1.262       .  A
N485        O488   1.262       .  A
N485        O489   1.263       .  A
C490        C491   1.419       .  A
C490        C495   1.407       .  A
C490        H497   1.080       .  S
C491        C492   1.416       .  A
C492        C493   1.397       .  A
C492        N499   1.420       .  S
C493        C494   1.395       .  A
C493        H498   1.085       .  S
C494        C495   1.411       .  A
C495        N496   1.439       .  S
N496        O500   1.262       .  A
N496        O501   1.263       .  A
N499        O502   1.261   1_565  A
N499        O503   1.261   1_565  A
C504        C505   1.397       .  A
C504        C509   1.406       .  A
C504        H511   1.084       .  S
C505        C506   1.411       .  A
C506        C507   1.401       .  A
C506        N513   1.432       .  S
C507        C508   1.405       .  A
C507        H512   1.071       .  S
C508        C509   1.433       .  A
C509        N510   1.431       .  S
N510        O514   1.262       .  A
N510        O515   1.262       .  A
N513        O516   1.262       .  A
N513        O517   1.262       .  A
C518        C519   1.423       .  A
C518        C523   1.400       .  A
C518        H525   1.080       .  S
C519        C520   1.427       .  A
C520        C521   1.403       .  A
C520        N527   1.433       .  S
C521        C522   1.394       .  A
C521        H526   1.085       .  S
C522        C523   1.404       .  A
C523        N524   1.442       .  S
N524        O528   1.263       .  A
N524        O529   1.263       .  A
N527        O530   1.261   1_455  A
N527        O531   1.262   1_455  A
N532        N533   1.318       .  A
N532        N538   1.315       .  A
N532       Mn561   2.198       .  S
N533        C540   1.352       .  A
N534        N536   1.313       .  A
N534        N535   1.320       .  A
N534       Mn550   2.188       .  S
N535        C541   1.352       .  A
N536        N537   1.317       .  A
N536       Mn561   2.193       .  S
N537        C541   1.354       .  A
N538        N539   1.322       .  A
N538       Mn550   2.202       .  S
N539        C540   1.353       .  A
C540        C671   1.474       .  S
C541        C629   1.481       .  S
N542        N548   1.315       .  A
N542        N543   1.321       .  A
N542       Mn572   2.210       .  S
N543        C551   1.354       .  A
N544        N545   1.319       .  A
N544        N546   1.315       .  A
N544       Mn550   2.191       .  S
N545        C552   1.351       .  A
N546        N547   1.319       .  A
N546       Mn572   2.197       .  S
N547        C552   1.352       .  A
N548        N549   1.320       .  A
N548       Mn550   2.193       .  S
N549        C551   1.351       .  A
Mn550      Cl574   2.554       .  S
C551        C657   1.469       .  S
C552        C699   1.468       .  S
N553        N554   1.321       .  A
N553        N559   1.316       .  A
N553       Mn561   2.205       .  S
N554        C562   1.354       .  A
N555        N557   1.315       .  A
N555        N556   1.320       .  A
N555       Mn573   2.209       .  S
N556        C563   1.357       .  A
N557        N558   1.320       .  A
N557       Mn561   2.196       .  S
N558        C563   1.351       .  A
N559        N560   1.321       .  A
N559       Mn573   2.208       .  S
N560        C562   1.353       .  A
Mn561      Cl574   2.535       .  S
C562        C598   1.476       .  S
C563        C640   1.489       .  S
N564        N565   1.318       .  A
N564        N570   1.317       .  A
N564       Mn572   2.198       .  S
N565        C575   1.349       .  A
N566        N567   1.322       .  A
N566        N568   1.315       .  A
N566       Mn573   2.202       .  S
N567        C576   1.354       .  A
N568        N569   1.317       .  A
N568       Mn572   2.196       .  S
N569        C576   1.354       .  A
N570        N571   1.324       .  A
N570       Mn573   2.220       .  S
N571        C575   1.357       .  A
Mn572      Cl574   2.534       .  S
Mn573      Cl574   2.553       .  S
C575        C682   1.484       .  S
C576        C615   1.483       .  S
C577        C601   1.556       .  S
C578        C612   1.536       .  S
C578        C581   1.552       .  S
C579        C626   1.534       .  S
C580        C654   1.545       .  S
C580        C582   1.555       .  S
C581       C1290   1.394       .  D
C582       C1289   1.394   1_455  D
C583        C643   1.550       .  S
C583        C586   1.510       .  S
C583        C595   1.499       .  S
C584        C668   1.546       .  S
C584        C585   1.513       .  S
C584        C591   1.487       .  S
C585       C1294   1.330   1_455  D
C586       C1293   1.330       .  D
C587        C696   1.550       .  S
C587        C589   1.558       .  S
C587        C590   1.505       .  S
C587        C593   1.508       .  S
C588        C594   1.566       .  S
C588       C1297   1.399       .  D
C589       C1296   1.399   1_455  D
C592        C594   1.493       .  S
C592       C1301   1.314       .  D
C593       C1300   1.314   1_455  D
C594        C685   1.545       .  S
C594        C596   1.502       .  S
C597        C598   1.394       .  A
C597        C602   1.403       .  A
C597        H604   1.085       .  S
C598        C599   1.408       .  A
C599        C600   1.406       .  A
C599        N606   1.441       .  S
C600        C601   1.422       .  A
C600        H605   1.080       .  S
C601        C602   1.424       .  A
C602        N603   1.425       .  S
N603        O607   1.262       .  A
N603        O608   1.257       .  A
N606        O609   1.262       .  A
N606        O610   1.263       .  A
C611        C612   1.414       .  A
C611        C616   1.407       .  A
C611        H618   1.081       .  S
C612        C613   1.415       .  A
C613        C614   1.395       .  A
C613        N620   1.424       .  S
C614        C615   1.399       .  A
C614        H619   1.084       .  S
C615        C616   1.414       .  A
C616        N617   1.437       .  S
N617        O621   1.263       .  A
N617        O622   1.263       .  A
N620        O623   1.262       .  A
N620        O624   1.262       .  A
C625        C626   1.412       .  A
C625        C630   1.402       .  A
C625        H632   1.082       .  S
C626        C627   1.425       .  A
C627        C628   1.396       .  A
C627        N634   1.433       .  S
C628        C629   1.399       .  A
C628        H633   1.083       .  S
C629        C630   1.411       .  A
C630        N631   1.432       .  S
N631        O635   1.262       .  A
N631        O636   1.262       .  A
N634        O637   1.262       .  A
N634        O638   1.262   1_565  A
C639        C640   1.396       .  A
C639        C644   1.399       .  A
C639        H646   1.084       .  S
C640        C641   1.413       .  A
C641        C642   1.406       .  A
C641        N648   1.433       .  S
C642        C643   1.417       .  A
C642        H647   1.082       .  S
C643        C644   1.418       .  A
C644        N645   1.422       .  S
N645        O649   1.262       .  A
N645        O650   1.262       .  A
N648        O651   1.262       .  A
N648        O652   1.262       .  A
C653        C654   1.413       .  A
C653        C658   1.409       .  A
C653        H660   1.077       .  S
C654        C655   1.417       .  A
C655        C656   1.398       .  A
C655        N662   1.421       .  S
C656        C657   1.394       .  A
C656        H661   1.085       .  S
C657        C658   1.412       .  A
C658        N659   1.443       .  S
N659        O663   1.263       .  A
N659        O664   1.262       .  A
N662        O665   1.262       .  A
N662        O666   1.263       .  A
C667        C668   1.419       .  A
C667        C672   1.407       .  A
C667        H674   1.080       .  S
C668        C669   1.416       .  A
C669        C670   1.397       .  A
C669        N676   1.420       .  S
C670        C671   1.395       .  A
C670        H675   1.085       .  S
C671        C672   1.411       .  A
C672        N673   1.439       .  S
N673        O677   1.262       .  A
N673        O678   1.263       .  A
N676        O679   1.261   1_565  A
N676        O680   1.261   1_565  A
C681        C682   1.397       .  A
C681        C686   1.406       .  A
C681        H688   1.084       .  S
C682        C683   1.411       .  A
C683        C684   1.401       .  A
C683        N690   1.432       .  S
C684        C685   1.405       .  A
C684        H689   1.071       .  S
C685        C686   1.433       .  A
C686        N687   1.431       .  S
N687        O691   1.262       .  A
N687        O692   1.262       .  A
N690        O693   1.262       .  A
N690        O694   1.262       .  A
C695        C696   1.423       .  A
C695        C700   1.400       .  A
C695        H702   1.080       .  S
C696        C697   1.427       .  A
C697        C698   1.403       .  A
C697        N704   1.433       .  S
C698        C699   1.394       .  A
C698        H703   1.085       .  S
C699        C700   1.404       .  A
C700        N701   1.442       .  S
N701        O705   1.263       .  A
N701        O706   1.263       .  A
N704        O707   1.261   1_455  A
N704        O708   1.262   1_455  A
N709        N710   1.318       .  A
N709        N715   1.315       .  A
N709       Mn738   2.198       .  S
N710        C717   1.352       .  A
N711        N713   1.313       .  A
N711        N712   1.320       .  A
N711       Mn727   2.188       .  S
N712        C718   1.352       .  A
N713        N714   1.317       .  A
N713       Mn738   2.193       .  S
N714        C718   1.354       .  A
N715        N716   1.322       .  A
N715       Mn727   2.202       .  S
N716        C717   1.353       .  A
C717        C848   1.474       .  S
C718        C806   1.481       .  S
N719        N725   1.315       .  A
N719        N720   1.321       .  A
N719       Mn749   2.210       .  S
N720        C728   1.354       .  A
N721        N722   1.319       .  A
N721        N723   1.315       .  A
N721       Mn727   2.191       .  S
N722        C729   1.351       .  A
N723        N724   1.319       .  A
N723       Mn749   2.197       .  S
N724        C729   1.352       .  A
N725        N726   1.320       .  A
N725       Mn727   2.193       .  S
N726        C728   1.351       .  A
Mn727      Cl751   2.554       .  S
C728        C834   1.469       .  S
C729        C876   1.468       .  S
N730        N731   1.321       .  A
N730        N736   1.316       .  A
N730       Mn738   2.205       .  S
N731        C739   1.354       .  A
N732        N734   1.315       .  A
N732        N733   1.320       .  A
N732       Mn750   2.209       .  S
N733        C740   1.357       .  A
N734        N735   1.320       .  A
N734       Mn738   2.196       .  S
N735        C740   1.351       .  A
N736        N737   1.321       .  A
N736       Mn750   2.208       .  S
N737        C739   1.353       .  A
Mn738      Cl751   2.535       .  S
C739        C775   1.477       .  S
C740        C817   1.489       .  S
N741        N742   1.318       .  A
N741        N747   1.317       .  A
N741       Mn749   2.198       .  S
N742        C752   1.349       .  A
N743        N744   1.322       .  A
N743        N745   1.315       .  A
N743       Mn750   2.202       .  S
N744        C753   1.354       .  A
N745        N746   1.317       .  A
N745       Mn749   2.196       .  S
N746        C753   1.353       .  A
N747        N748   1.324       .  A
N747       Mn750   2.220       .  S
N748        C752   1.358       .  A
Mn749      Cl751   2.534       .  S
Mn750      Cl751   2.553       .  S
C752        C859   1.484       .  S
C753        C792   1.483       .  S
C754        C778   1.556       .  S
C754       C1112   1.559       .  S
C754        C940   1.505       .  S
C754        C949   1.503       .  S
C755        C789   1.536       .  S
C755        C758   1.552   1_545  S
C755        C946   1.507       .  S
C755        C950   1.499       .  S
C756        C803   1.534       .  S
C756       C1113   1.551       .  S
C756        C939   1.509       .  S
C756        C945   1.488       .  S
C757        C831   1.545       .  S
C757        C759   1.555   1_545  S
C757        C944   1.501       .  S
C757        C947   1.503       .  S
C758       C1108   1.559       .  S
C759       C1110   1.551       .  S
C760        C820   1.550       .  S
C760        C763   1.510       .  S
C760       C1119   1.556       .  S
C760        C772   1.499   1_554  S
C761        C845   1.546       .  S
C761        C762   1.513       .  S
C761       C1120   1.557       .  S
C761        C768   1.487       .  S
C762        C933   1.509   1_554  S
C763        C931   1.505   1_554  S
C764        C873   1.550       .  S
C764        C766   1.558       .  S
C764        C767   1.505       .  S
C764        C770   1.508   1_554  S
C765       C1114   1.556   1_545  S
C765        C771   1.566       .  S
C766       C1115   1.557   1_545  S
C767        C934   1.501   1_554  S
C767       C1122   1.309   1_545  D
C768        C933   1.488   1_554  S
C768       C1121   1.309       .  D
C769        C932   1.507       .  S
C769        C771   1.493   1_556  S
C770        C934   1.503       .  S
C771        C862   1.545       .  S
C771        C773   1.502   1_554  S
C772        C931   1.503       .  S
C772       C1127   1.312       .  D
C773        C932   1.499       .  S
C773       C1126   1.312   1_545  D
C774        C775   1.394       .  A
C774        C779   1.403       .  A
C774        H781   1.085       .  S
C775        C776   1.408       .  A
C776        C777   1.406       .  A
C776        N783   1.441       .  S
C777        C778   1.422       .  A
C777        H782   1.080       .  S
C778        C779   1.424       .  A
C779        N780   1.425       .  S
N780        O784   1.262   1_655  A
N780        O785   1.257       .  A
N783        O786   1.262       .  A
N783        O787   1.263       .  A
C788        C789   1.414       .  A
C788        C793   1.407       .  A
C788        H795   1.081       .  S
C789        C790   1.415       .  A
C790        C791   1.395       .  A
C790        N797   1.424       .  S
C791        C792   1.399       .  A
C791        H796   1.084       .  S
C792        C793   1.414       .  A
C793        N794   1.437       .  S
N794        O798   1.263       .  A
N794        O799   1.263       .  A
N797        O800   1.262   1_545  A
N797        O801   1.262   1_545  A
C802        C803   1.412       .  A
C802        C807   1.402       .  A
C802        H809   1.082       .  S
C803        C804   1.425       .  A
C804        C805   1.396       .  A
C804        N811   1.433       .  S
C805        C806   1.399       .  A
C805        H810   1.083       .  S
C806        C807   1.411       .  A
C807        N808   1.432       .  S
N808        O812   1.262       .  A
N808        O813   1.262       .  A
N811        O814   1.262       .  A
N811        O815   1.262       .  A
C816        C817   1.396       .  A
C816        C821   1.399       .  A
C816        H823   1.084       .  S
C817        C818   1.413       .  A
C818        C819   1.406       .  A
C818        N825   1.433       .  S
C819        C820   1.417       .  A
C819        H824   1.082       .  S
C820        C821   1.418       .  A
C821        N822   1.422       .  S
N822        O826   1.262   1_655  A
N822        O827   1.262       .  A
N825        O828   1.262       .  A
N825        O829   1.262       .  A
C830        C831   1.413       .  A
C830        C835   1.409       .  A
C830        H837   1.077       .  S
C831        C832   1.417       .  A
C832        C833   1.398       .  A
C832        N839   1.421       .  S
C833        C834   1.394       .  A
C833        H838   1.085       .  S
C834        C835   1.412       .  A
C835        N836   1.443       .  S
N836        O840   1.263       .  A
N836        O841   1.262       .  A
N839        O842   1.262       .  A
N839        O843   1.263       .  A
C844        C845   1.419       .  A
C844        C849   1.407       .  A
C844        H851   1.080       .  S
C845        C846   1.416       .  A
C846        C847   1.397       .  A
C846        N853   1.420       .  S
C847        C848   1.395       .  A
C847        H852   1.085       .  S
C848        C849   1.411       .  A
C849        N850   1.439       .  S
N850        O854   1.262       .  A
N850        O855   1.263       .  A
N853        O856   1.261       .  A
N853        O857   1.261       .  A
C858        C859   1.397       .  A
C858        C863   1.406       .  A
C858        H865   1.084       .  S
C859        C860   1.411       .  A
C860        C861   1.401       .  A
C860        N867   1.432       .  S
C861        C862   1.405       .  A
C861        H866   1.074       .  S
C862        C863   1.433       .  A
C863        N864   1.431       .  S
N864        O868   1.262       .  A
N864        O869   1.262       .  A
N867        O870   1.262       .  A
N867        O871   1.262       .  A
C872        C873   1.423       .  A
C872        C877   1.400       .  A
C872        H879   1.080       .  S
C873        C874   1.428       .  A
C874        C875   1.403       .  A
C874        N881   1.433       .  S
C875        C876   1.394       .  A
C875        H880   1.085       .  S
C876        C877   1.404       .  A
C877        N878   1.442       .  S
N878        O882   1.263       .  A
N878        O883   1.263       .  A
N881        O884   1.261       .  A
N881        O885   1.262       .  A
N886        N887   1.318       .  A
N886        N892   1.315       .  A
N886       Mn915   2.198       .  S
N887        C894   1.352       .  A
N888        N890   1.313       .  A
N888        N889   1.320       .  A
N888       Mn904   2.188       .  S
N889        C895   1.352       .  A
N890        N891   1.317       .  A
N890       Mn915   2.193       .  S
N891        C895   1.354       .  A
N892        N893   1.322       .  A
N892       Mn904   2.202       .  S
N893        C894   1.353       .  A
C894       C1025   1.474       .  S
C895        C983   1.481       .  S
N896        N902   1.315       .  A
N896        N897   1.321       .  A
N896       Mn926   2.210       .  S
N897        C905   1.354       .  A
N898        N899   1.319       .  A
N898        N900   1.315       .  A
N898       Mn904   2.191       .  S
N899        C906   1.351       .  A
N900        N901   1.319       .  A
N900       Mn926   2.197       .  S
N901        C906   1.352       .  A
N902        N903   1.320       .  A
N902       Mn904   2.193       .  S
N903        C905   1.351       .  A
Mn904      Cl928   2.554       .  S
C905       C1011   1.469       .  S
C906       C1053   1.468       .  S
N907        N908   1.321       .  A
N907        N913   1.316       .  A
N907       Mn915   2.205       .  S
N908        C916   1.354       .  A
N909        N911   1.315       .  A
N909        N910   1.320       .  A
N909       Mn927   2.209       .  S
N910        C917   1.357       .  A
N911        N912   1.320       .  A
N911       Mn915   2.196       .  S
N912        C917   1.351       .  A
N913        N914   1.321       .  A
N913       Mn927   2.208       .  S
N914        C916   1.353       .  A
Mn915      Cl928   2.535       .  S
C916        C952   1.477       .  S
C917        C994   1.489       .  S
N918        N919   1.318       .  A
N918        N924   1.317       .  A
N918       Mn926   2.198       .  S
N919        C929   1.349       .  A
N920        N921   1.322       .  A
N920        N922   1.315       .  A
N920       Mn927   2.202       .  S
N921        C930   1.354       .  A
N922        N923   1.317       .  A
N922       Mn926   2.196       .  S
N923        C930   1.353       .  A
N924        N925   1.324       .  A
N924       Mn927   2.220       .  S
N925        C929   1.358       .  A
Mn926      Cl928   2.534       .  S
Mn927      Cl928   2.553       .  S
C929       C1036   1.484       .  S
C930        C969   1.483       .  S
C931        C955   1.556       .  S
C931       C1289   1.559       .  S
C932        C966   1.536       .  S
C932        C935   1.552   1_545  S
C933        C980   1.534       .  S
C933       C1290   1.551       .  S
C934       C1008   1.545       .  S
C934        C936   1.555   1_545  S
C935       C1285   1.559       .  S
C936       C1287   1.551       .  S
C937        C997   1.550       .  S
C937        C940   1.510       .  S
C937       C1296   1.556       .  S
C937        C949   1.499       .  S
C938       C1022   1.546       .  S
C938        C939   1.513       .  S
C938       C1297   1.557       .  S
C938        C945   1.487       .  S
C941       C1050   1.550       .  S
C941        C943   1.558       .  S
C941        C944   1.505       .  S
C941        C947   1.508       .  S
C942       C1291   1.556   1_545  S
C942        C948   1.566       .  S
C943       C1292   1.557   1_545  S
C944       C1299   1.309   1_545  D
C945       C1298   1.309       .  D
C946        C948   1.493       .  S
C948       C1039   1.545       .  S
C948        C950   1.502       .  S
C949       C1304   1.312       .  D
C950       C1303   1.312   1_545  D
C951        C952   1.394       .  A
C951        C956   1.403       .  A
C951        H958   1.085       .  S
C952        C953   1.408       .  A
C953        C954   1.406       .  A
C953        N960   1.441       .  S
C954        C955   1.422       .  A
C954        H959   1.080       .  S
C955        C956   1.424       .  A
C956        N957   1.425       .  S
N957        O961   1.262   1_655  A
N957        O962   1.257       .  A
N960        O963   1.262       .  A
N960        O964   1.263       .  A
C965        C966   1.414       .  A
C965        C970   1.407       .  A
C965        H972   1.081       .  S
C966        C967   1.415       .  A
C967        C968   1.395       .  A
C967        N974   1.424       .  S
C968        C969   1.399       .  A
C968        H973   1.084       .  S
C969        C970   1.414       .  A
C970        N971   1.437       .  S
N971        O975   1.263       .  A
N971        O976   1.263       .  A
N974        O977   1.262   1_545  A
N974        O978   1.262   1_545  A
C979        C980   1.412       .  A
C979        C984   1.402       .  A
C979        H986   1.082       .  S
C980        C981   1.425       .  A
C981        C982   1.396       .  A
C981        N988   1.433       .  S
C982        C983   1.399       .  A
C982        H987   1.083       .  S
C983        C984   1.411       .  A
C984        N985   1.432       .  S
N985        O989   1.262       .  A
N985        O990   1.262       .  A
N988        O991   1.262       .  A
N988        O992   1.262       .  A
C993        C994   1.396       .  A
C993        C998   1.399       .  A
C993       H1000   1.084       .  S
C994        C995   1.413       .  A
C995        C996   1.406       .  A
C995       N1002   1.433       .  S
C996        C997   1.417       .  A
C996       H1001   1.082       .  S
C997        C998   1.418       .  A
C998        N999   1.422       .  S
N999       O1003   1.262   1_655  A
N999       O1004   1.262       .  A
N1002      O1005   1.262       .  A
N1002      O1006   1.262       .  A
C1007      C1008   1.413       .  A
C1007      C1012   1.409       .  A
C1007      H1014   1.077       .  S
C1008      C1009   1.417       .  A
C1009      C1010   1.398       .  A
C1009      N1016   1.421       .  S
C1010      C1011   1.394       .  A
C1010      H1015   1.085       .  S
C1011      C1012   1.412       .  A
C1012      N1013   1.443       .  S
N1013      O1017   1.263       .  A
N1013      O1018   1.262       .  A
N1016      O1019   1.262       .  A
N1016      O1020   1.263       .  A
C1021      C1022   1.419       .  A
C1021      C1026   1.407       .  A
C1021      H1028   1.080       .  S
C1022      C1023   1.416       .  A
C1023      C1024   1.397       .  A
C1023      N1030   1.420       .  S
C1024      C1025   1.395       .  A
C1024      H1029   1.085       .  S
C1025      C1026   1.411       .  A
C1026      N1027   1.439       .  S
N1027      O1031   1.262       .  A
N1027      O1032   1.263       .  A
N1030      O1033   1.261       .  A
N1030      O1034   1.261       .  A
C1035      C1036   1.397       .  A
C1035      C1040   1.406       .  A
C1035      H1042   1.084       .  S
C1036      C1037   1.411       .  A
C1037      C1038   1.401       .  A
C1037      N1044   1.432       .  S
C1038      C1039   1.405       .  A
C1038      H1043   1.074       .  S
C1039      C1040   1.433       .  A
C1040      N1041   1.431       .  S
N1041      O1045   1.262       .  A
N1041      O1046   1.262       .  A
N1044      O1047   1.262       .  A
N1044      O1048   1.262       .  A
C1049      C1050   1.423       .  A
C1049      C1054   1.400       .  A
C1049      H1056   1.080       .  S
C1050      C1051   1.428       .  A
C1051      C1052   1.403       .  A
C1051      N1058   1.433       .  S
C1052      C1053   1.394       .  A
C1052      H1057   1.085       .  S
C1053      C1054   1.404       .  A
C1054      N1055   1.442       .  S
N1055      O1059   1.263       .  A
N1055      O1060   1.263       .  A
N1058      O1061   1.261       .  A
N1058      O1062   1.262       .  A
N1063      N1064   1.318       .  A
N1063      N1069   1.315       .  A
N1063     Mn1092   2.198       .  S
N1064      C1071   1.352       .  A
N1065      N1067   1.313       .  A
N1065      N1066   1.320       .  A
N1065     Mn1081   2.188       .  S
N1066      C1072   1.352       .  A
N1067      N1068   1.317       .  A
N1067     Mn1092   2.193       .  S
N1068      C1072   1.354       .  A
N1069      N1070   1.322       .  A
N1069     Mn1081   2.202       .  S
N1070      C1071   1.353       .  A
C1071      C1202   1.474       .  S
C1072      C1160   1.481       .  S
N1073      N1079   1.315       .  A
N1073      N1074   1.321       .  A
N1073     Mn1103   2.210       .  S
N1074      C1082   1.354       .  A
N1075      N1076   1.319       .  A
N1075      N1077   1.315       .  A
N1075     Mn1081   2.191       .  S
N1076      C1083   1.351       .  A
N1077      N1078   1.319       .  A
N1077     Mn1103   2.197       .  S
N1078      C1083   1.352       .  A
N1079      N1080   1.320       .  A
N1079     Mn1081   2.193       .  S
N1080      C1082   1.351       .  A
Mn1081    Cl1105   2.554       .  S
C1082      C1188   1.469       .  S
C1083      C1230   1.468       .  S
N1084      N1085   1.321       .  A
N1084      N1090   1.316       .  A
N1084     Mn1092   2.205       .  S
N1085      C1093   1.354       .  A
N1086      N1088   1.315       .  A
N1086      N1087   1.320       .  A
N1086     Mn1104   2.209       .  S
N1087      C1094   1.357       .  A
N1088      N1089   1.320       .  A
N1088     Mn1092   2.196       .  S
N1089      C1094   1.351       .  A
N1090      N1091   1.321       .  A
N1090     Mn1104   2.208       .  S
N1091      C1093   1.353       .  A
Mn1092    Cl1105   2.535       .  S
C1093      C1129   1.476       .  S
C1094      C1171   1.489       .  S
N1095      N1096   1.318       .  A
N1095      N1101   1.317       .  A
N1095     Mn1103   2.198       .  S
N1096      C1106   1.349       .  A
N1097      N1098   1.322       .  A
N1097      N1099   1.315       .  A
N1097     Mn1104   2.202       .  S
N1098      C1107   1.354       .  A
N1099      N1100   1.317       .  A
N1099     Mn1103   2.196       .  S
N1100      C1107   1.354       .  A
N1101      N1102   1.324       .  A
N1101     Mn1104   2.220       .  S
N1102      C1106   1.357       .  A
Mn1103    Cl1105   2.534       .  S
Mn1104    Cl1105   2.553       .  S
C1106      C1213   1.484       .  S
C1107      C1146   1.483       .  S
C1108      C1132   1.556       .  S
C1108      C1294   1.505       .  S
C1108      C1303   1.503       .  S
C1109      C1143   1.536       .  S
C1109      C1112   1.552       .  S
C1109      C1300   1.507       .  S
C1109      C1304   1.499       .  S
C1110      C1157   1.534       .  S
C1110      C1293   1.509       .  S
C1110      C1299   1.488       .  S
C1111      C1185   1.545       .  S
C1111      C1113   1.555       .  S
C1111      C1298   1.502       .  S
C1111      C1301   1.503       .  S
C1114      C1174   1.550       .  S
C1114      C1117   1.510       .  S
C1114      C1126   1.499   1_554  S
C1115      C1199   1.546       .  S
C1115      C1116   1.513       .  S
C1115      C1122   1.487       .  S
C1116      C1287   1.509   1_554  S
C1117      C1285   1.505   1_554  S
C1118      C1227   1.550       .  S
C1118      C1120   1.558       .  S
C1118      C1121   1.505       .  S
C1118      C1124   1.508   1_554  S
C1119      C1125   1.566       .  S
C1121      C1288   1.502   1_554  S
C1122      C1287   1.488   1_554  S
C1123      C1286   1.507       .  S
C1123      C1125   1.493   1_556  S
C1124      C1288   1.503       .  S
C1125      C1216   1.545       .  S
C1125      C1127   1.502   1_554  S
C1126      C1285   1.503       .  S
C1127      C1286   1.499       .  S
C1128      C1129   1.394       .  A
C1128      C1133   1.403       .  A
C1128      H1135   1.085       .  S
C1129      C1130   1.408       .  A
C1130      C1131   1.406       .  A
C1130      N1137   1.441       .  S
C1131      C1132   1.422       .  A
C1131      H1136   1.080       .  S
C1132      C1133   1.424       .  A
C1133      N1134   1.425       .  S
N1134      O1138   1.262   1_655  A
N1134      O1139   1.257       .  A
N1137      O1140   1.262       .  A
N1137      O1141   1.263       .  A
C1142      C1143   1.414       .  A
C1142      C1147   1.407       .  A
C1142      H1149   1.081       .  S
C1143      C1144   1.415       .  A
C1144      C1145   1.395       .  A
C1144      N1151   1.424       .  S
C1145      C1146   1.399       .  A
C1145      H1150   1.084       .  S
C1146      C1147   1.414       .  A
C1147      N1148   1.437       .  S
N1148      O1152   1.263       .  A
N1148      O1153   1.263       .  A
N1151      O1154   1.262       .  A
N1151      O1155   1.262       .  A
C1156      C1157   1.412       .  A
C1156      C1161   1.402       .  A
C1156      H1163   1.082       .  S
C1157      C1158   1.425       .  A
C1158      C1159   1.396       .  A
C1158      N1165   1.433       .  S
C1159      C1160   1.399       .  A
C1159      H1164   1.083       .  S
C1160      C1161   1.411       .  A
C1161      N1162   1.432       .  S
N1162      O1166   1.262       .  A
N1162      O1167   1.262       .  A
N1165      O1168   1.262       .  A
N1165      O1169   1.262   1_565  A
C1170      C1171   1.396       .  A
C1170      C1175   1.399       .  A
C1170      H1177   1.084       .  S
C1171      C1172   1.413       .  A
C1172      C1173   1.406       .  A
C1172      N1179   1.433       .  S
C1173      C1174   1.417       .  A
C1173      H1178   1.082       .  S
C1174      C1175   1.418       .  A
C1175      N1176   1.422       .  S
N1176      O1180   1.262   1_655  A
N1176      O1181   1.262       .  A
N1179      O1182   1.262       .  A
N1179      O1183   1.262       .  A
C1184      C1185   1.413       .  A
C1184      C1189   1.409       .  A
C1184      H1191   1.077       .  S
C1185      C1186   1.417       .  A
C1186      C1187   1.398       .  A
C1186      N1193   1.421       .  S
C1187      C1188   1.394       .  A
C1187      H1192   1.085       .  S
C1188      C1189   1.412       .  A
C1189      N1190   1.443       .  S
N1190      O1194   1.263       .  A
N1190      O1195   1.262       .  A
N1193      O1196   1.262       .  A
N1193      O1197   1.263       .  A
C1198      C1199   1.419       .  A
C1198      C1203   1.407       .  A
C1198      H1205   1.080       .  S
C1199      C1200   1.416       .  A
C1200      C1201   1.397       .  A
C1200      N1207   1.420       .  S
C1201      C1202   1.395       .  A
C1201      H1206   1.085       .  S
C1202      C1203   1.411       .  A
C1203      N1204   1.439       .  S
N1204      O1208   1.262       .  A
N1204      O1209   1.263       .  A
N1207      O1210   1.261   1_565  A
N1207      O1211   1.261   1_565  A
C1212      C1213   1.397       .  A
C1212      C1217   1.406       .  A
C1212      H1219   1.084       .  S
C1213      C1214   1.411       .  A
C1214      C1215   1.401       .  A
C1214      N1221   1.432       .  S
C1215      C1216   1.405       .  A
C1215      H1220   1.071       .  S
C1216      C1217   1.433       .  A
C1217      N1218   1.431       .  S
N1218      O1222   1.262       .  A
N1218      O1223   1.262       .  A
N1221      O1224   1.262       .  A
N1221      O1225   1.262       .  A
C1226      C1227   1.423       .  A
C1226      C1231   1.400       .  A
C1226      H1233   1.080       .  S
C1227      C1228   1.427       .  A
C1228      C1229   1.403       .  A
C1228      N1235   1.433       .  S
C1229      C1230   1.394       .  A
C1229      H1234   1.085       .  S
C1230      C1231   1.404       .  A
C1231      N1232   1.442       .  S
N1232      O1236   1.263       .  A
N1232      O1237   1.263       .  A
N1235      O1238   1.261       .  A
N1235      O1239   1.262       .  A
N1240      N1241   1.318       .  A
N1240      N1246   1.315       .  A
N1240     Mn1269   2.198       .  S
N1241      C1248   1.352       .  A
N1242      N1244   1.313       .  A
N1242      N1243   1.320       .  A
N1242     Mn1258   2.188       .  S
N1243      C1249   1.352       .  A
N1244      N1245   1.317       .  A
N1244     Mn1269   2.193       .  S
N1245      C1249   1.354       .  A
N1246      N1247   1.322       .  A
N1246     Mn1258   2.202       .  S
N1247      C1248   1.353       .  A
C1248      C1379   1.474       .  S
C1249      C1337   1.481       .  S
N1250      N1256   1.315       .  A
N1250      N1251   1.321       .  A
N1250     Mn1280   2.210       .  S
N1251      C1259   1.354       .  A
N1252      N1253   1.319       .  A
N1252      N1254   1.315       .  A
N1252     Mn1258   2.191       .  S
N1253      C1260   1.351       .  A
N1254      N1255   1.319       .  A
N1254     Mn1280   2.197       .  S
N1255      C1260   1.352       .  A
N1256      N1257   1.320       .  A
N1256     Mn1258   2.193       .  S
N1257      C1259   1.351       .  A
Mn1258    Cl1282   2.554       .  S
C1259      C1365   1.469       .  S
C1260      C1407   1.468       .  S
N1261      N1262   1.321       .  A
N1261      N1267   1.316       .  A
N1261     Mn1269   2.205       .  S
N1262      C1270   1.354       .  A
N1263      N1265   1.315       .  A
N1263      N1264   1.320       .  A
N1263     Mn1281   2.209       .  S
N1264      C1271   1.357       .  A
N1265      N1266   1.320       .  A
N1265     Mn1269   2.196       .  S
N1266      C1271   1.351       .  A
N1267      N1268   1.321       .  A
N1267     Mn1281   2.208       .  S
N1268      C1270   1.353       .  A
Mn1269    Cl1282   2.535       .  S
C1270      C1306   1.476       .  S
C1271      C1348   1.489       .  S
N1272      N1273   1.318       .  A
N1272      N1278   1.317       .  A
N1272     Mn1280   2.198       .  S
N1273      C1283   1.349       .  A
N1274      N1275   1.322       .  A
N1274      N1276   1.315       .  A
N1274     Mn1281   2.202       .  S
N1275      C1284   1.354       .  A
N1276      N1277   1.317       .  A
N1276     Mn1280   2.196       .  S
N1277      C1284   1.354       .  A
N1278      N1279   1.324       .  A
N1278     Mn1281   2.220       .  S
N1279      C1283   1.357       .  A
Mn1280    Cl1282   2.534       .  S
Mn1281    Cl1282   2.553       .  S
C1283      C1390   1.484       .  S
C1284      C1323   1.483       .  S
C1285      C1309   1.556       .  S
C1286      C1320   1.536       .  S
C1286      C1289   1.552       .  S
C1287      C1334   1.534       .  S
C1288      C1362   1.545       .  S
C1288      C1290   1.555       .  S
C1291      C1351   1.550       .  S
C1291      C1294   1.510       .  S
C1291      C1303   1.499       .  S
C1292      C1376   1.546       .  S
C1292      C1293   1.513       .  S
C1292      C1299   1.487       .  S
C1295      C1404   1.550       .  S
C1295      C1297   1.558       .  S
C1295      C1298   1.505       .  S
C1295      C1301   1.508       .  S
C1296      C1302   1.566       .  S
C1300      C1302   1.493       .  S
C1302      C1393   1.545       .  S
C1302      C1304   1.502       .  S
C1305      C1306   1.394       .  A
C1305      C1310   1.403       .  A
C1305      H1312   1.085       .  S
C1306      C1307   1.408       .  A
C1307      C1308   1.406       .  A
C1307      N1314   1.441       .  S
C1308      C1309   1.422       .  A
C1308      H1313   1.080       .  S
C1309      C1310   1.424       .  A
C1310      N1311   1.425       .  S
N1311      O1315   1.262   1_655  A
N1311      O1316   1.257       .  A
N1314      O1317   1.262       .  A
N1314      O1318   1.263       .  A
C1319      C1320   1.414       .  A
C1319      C1324   1.407       .  A
C1319      H1326   1.081       .  S
C1320      C1321   1.415       .  A
C1321      C1322   1.395       .  A
C1321      N1328   1.424       .  S
C1322      C1323   1.399       .  A
C1322      H1327   1.084       .  S
C1323      C1324   1.414       .  A
C1324      N1325   1.437       .  S
N1325      O1329   1.263       .  A
N1325      O1330   1.263       .  A
N1328      O1331   1.262       .  A
N1328      O1332   1.262       .  A
C1333      C1334   1.412       .  A
C1333      C1338   1.402       .  A
C1333      H1340   1.082       .  S
C1334      C1335   1.425       .  A
C1335      C1336   1.396       .  A
C1335      N1342   1.433       .  S
C1336      C1337   1.399       .  A
C1336      H1341   1.083       .  S
C1337      C1338   1.411       .  A
C1338      N1339   1.432       .  S
N1339      O1343   1.262       .  A
N1339      O1344   1.262       .  A
N1342      O1345   1.262       .  A
N1342      O1346   1.262   1_565  A
C1347      C1348   1.396       .  A
C1347      C1352   1.399       .  A
C1347      H1354   1.084       .  S
C1348      C1349   1.413       .  A
C1349      C1350   1.406       .  A
C1349      N1356   1.433       .  S
C1350      C1351   1.417       .  A
C1350      H1355   1.082       .  S
C1351      C1352   1.418       .  A
C1352      N1353   1.422       .  S
N1353      O1357   1.262   1_655  A
N1353      O1358   1.262       .  A
N1356      O1359   1.262       .  A
N1356      O1360   1.262       .  A
C1361      C1362   1.413       .  A
C1361      C1366   1.409       .  A
C1361      H1368   1.077       .  S
C1362      C1363   1.417       .  A
C1363      C1364   1.398       .  A
C1363      N1370   1.421       .  S
C1364      C1365   1.394       .  A
C1364      H1369   1.085       .  S
C1365      C1366   1.412       .  A
C1366      N1367   1.443       .  S
N1367      O1371   1.263       .  A
N1367      O1372   1.262       .  A
N1370      O1373   1.262       .  A
N1370      O1374   1.263       .  A
C1375      C1376   1.419       .  A
C1375      C1380   1.407       .  A
C1375      H1382   1.080       .  S
C1376      C1377   1.416       .  A
C1377      C1378   1.397       .  A
C1377      N1384   1.420       .  S
C1378      C1379   1.395       .  A
C1378      H1383   1.085       .  S
C1379      C1380   1.411       .  A
C1380      N1381   1.439       .  S
N1381      O1385   1.262       .  A
N1381      O1386   1.263       .  A
N1384      O1387   1.261   1_565  A
N1384      O1388   1.261   1_565  A
C1389      C1390   1.397       .  A
C1389      C1394   1.406       .  A
C1389      H1396   1.084       .  S
C1390      C1391   1.411       .  A
C1391      C1392   1.401       .  A
C1391      N1398   1.432       .  S
C1392      C1393   1.405       .  A
C1392      H1397   1.071       .  S
C1393      C1394   1.433       .  A
C1394      N1395   1.431       .  S
N1395      O1399   1.262       .  A
N1395      O1400   1.262       .  A
N1398      O1401   1.262       .  A
N1398      O1402   1.262       .  A
C1403      C1404   1.423       .  A
C1403      C1408   1.400       .  A
C1403      H1410   1.080       .  S
C1404      C1405   1.427       .  A
C1405      C1406   1.403       .  A
C1405      N1412   1.433       .  S
C1406      C1407   1.394       .  A
C1406      H1411   1.085       .  S
C1407      C1408   1.404       .  A
C1408      N1409   1.442       .  S
N1409      O1413   1.263       .  A
N1409      O1414   1.263       .  A
N1412      O1415   1.261       .  A
N1412      O1416   1.262       .  A
