geometry optimzed in LAMMPS
_audit_creation_date              2020-11-30 
_audit_creation_method            'lammps2cif' 
_symmetry_space_group_name_H-M    'P1' 
_symmetry_Int_Tables_number       1 
_symmetry_cell_setting            triclinic 
loop_ 
_symmetry_equiv_pos_as_xyz 
  x,y,z 
_cell_length_a                    42.39977934614576 
_cell_length_b                    42.31962812494979 
_cell_length_c                    42.54683379437557 
_cell_angle_alpha                 90.33277624203959 
_cell_angle_beta                  90.10956865310219 
_cell_angle_gamma                 90.78221189041363 
loop_ 
_atom_site_label 
_atom_site_type_symbol 
_atom_site_fract_x 
_atom_site_fract_y 
_atom_site_fract_z 
_atom_site_charge 
O1          O  0.52559844  0.09869542  0.05695407    -0.86520
O2          O  0.01620290  0.41876101  0.06027754    -0.86680
O3          O  0.47205136  0.51053304  0.10711479    -0.88350
O4          O  0.07215649  0.99649173  0.07827109    -0.87110
O5          O  0.10244080  0.01794140  0.04155029    -0.86700
O6          O  0.45762675  0.53156981  0.06375229    -0.88070
O7          O  0.53018443  0.45204280  0.09293906    -0.86550
O8          O  0.52808500  0.06088597  0.09534039    -0.86130
Zr9        Zr  0.51708117  0.50405648  0.07210156     2.84310
O10         O  0.03402585  0.47505091  0.04335723    -1.08110
O11         O  0.47731188  0.03668673  0.04377426    -1.08840
C12         C  0.53302534  0.08912125  0.08486406     1.06590
C13         C  0.53393487  0.42413056  0.08076659     1.06530
C14         C  0.44988753  0.52190416  0.09044175     1.09520
C15         C  0.09291633  0.01685418  0.07006663     1.07290
H16         H  0.46662695  0.46200775  0.06297798     0.32850
O17         O  0.47696612  0.47370998  0.04645408    -1.29060
H18         H  0.05831224  0.05024214  0.04125386     0.32530
O19         O  0.04173335  0.03609875  0.03466490    -1.30740
O20         O  0.97973949  0.41764435  0.46759318    -0.86510
O21         O  0.50099898  0.08756069  0.45843527    -0.88010
O22         O  0.41374509  0.45846128  0.54029270    -0.86590
O23         O  0.08394383  0.45395532  0.01682719    -0.86640
O24         O  0.08673382  0.04758644  0.97406663    -0.86350
O25         O  0.42055712  0.05635245  0.53580417    -0.86160
O26         O  0.45284115  0.51934148  0.43256690    -0.86530
O27         O  0.03758420  0.99402881  0.42327739    -0.85990
O28         O  0.41458319  0.50845144  0.46885246    -0.87050
O29         O  0.07982606  0.99271279  0.45696419    -0.86210
O30         O  0.45110190  0.41980396  0.53815479    -0.86610
O31         O  0.45585978  0.09481158  0.51987558    -0.86330
O32         O  0.05262355  0.08842198  0.98150905    -0.85980
O33         O  0.04295621  0.41832523  0.01000614    -0.86390
O34         O  0.97550131  0.45662541  0.43117395    -0.86690
O35         O  0.00691439  0.04697909  0.42646398    -0.88020
Zr36       Zr  0.99791738  0.44264501  0.51782776     2.83100
Zr37       Zr  0.50175200  0.07220766  0.01195990     2.83500
Zr38       Zr  0.44094436  0.50614367  0.52146868     2.84090
Zr39       Zr  0.06635298  0.00130674  0.00067107     2.83360
Zr40       Zr  0.99363038  0.00356568  0.45598569     2.84220
O41         O  0.02847462  0.03519418  0.48137705    -1.08600
O42         O  0.46436865  0.47159293  0.48749500    -1.08100
C43         C  0.97251926  0.42804756  0.43970679     1.06560
C44         C  0.00122951  0.07577998  0.43164520     1.09180
C45         C  0.42296549  0.42944156  0.54323976     1.06740
C46         C  0.07214541  0.42617150  0.01286462     1.07100
C47         C  0.07789978  0.07624645  0.96965899     1.06680
C48         C  0.42830689  0.08437686  0.52818017     1.06230
C49         C  0.42454637  0.51461777  0.44054353     1.06660
C50         C  0.06692270  0.99211823  0.42975810     1.06170
H51         H  0.45568504  0.05305173  0.47617939     0.32850
O52         O  0.46900986  0.03798126  0.48647863    -1.29690
H53         H  0.03951382  0.45307530  0.46919372     0.32870
O54         O  0.03033711  0.46855565  0.48304986    -1.31080
C55         C  0.00382769  0.10099795  0.14065018     0.03100
C56         C  0.03648279  0.10045672  0.13617941    -0.13050
C57         C  0.04682067  0.10862322  0.10646570     0.00600
C58         C  0.03668987  0.13815501  0.09739626    -0.11580
C59         C  0.00402734  0.14294432  0.09916726     0.03090
C60         C  0.98636903  0.12325318  0.12134565    -0.11000
H61         H  0.05095921  0.08548796  0.15061511     0.08690
H62         H  0.05063822  0.15093025  0.08013583     0.06220
H63         H  0.96098219  0.12475952  0.12304513     0.06060
O64         O  0.48788658  0.08754214  0.19443731    -0.75320
O65         O  0.49527995  0.04792162  0.15865195    -0.54230
C66         C  0.99290862  0.07677045  0.16432471     0.78410
O67         O  0.09152426  0.99056561  0.29423451    -0.59920
O68         O  0.05068874  0.99538152  0.32834403    -0.52950
C69         C  0.08035796  0.99093811  0.32225794     0.70420
O70         O  0.08840268  0.49161819  0.19397257    -0.74480
O71         O  0.04879243  0.49504892  0.15762885    -0.55040
C72         C  0.07784002  0.99483989  0.16447685     0.76420
O73         O  0.99248652  0.09246004  0.29407286    -0.59620
O74         O  0.99584437  0.05156899  0.32817016    -0.52740
C75         C  0.99305011  0.08155887  0.32216387     0.72980
Zr76       Zr  0.49395258  0.06222037  0.24517588     2.54710
O77         O  0.03867125  0.10031352  0.24182320    -0.80190
O78         O  0.44948730  0.09806144  0.24750658    -0.93610
Zr79       Zr  0.06286435  0.49678412  0.24490420     2.64680
O80         O  0.09797057  0.04254565  0.24387421    -0.98560
O81         O  0.10400166  0.45726789  0.24296982    -0.80620
O82         O  0.02822904  0.02880002  0.21411979    -0.83980
O83         O  0.03065383  0.03155406  0.27401934    -2.18690
O84         O  0.40460993  0.99399292  0.30185426    -0.67370
O85         O  0.44789330  0.99711150  0.33336227    -0.51940
C86         C  0.41728595  0.49635500  0.32902669     0.71400
O87         O  0.49669308  0.40234947  0.19736533    -0.60280
O88         O  0.49407016  0.44143239  0.16025236    -0.52250
C89         C  0.49694601  0.41214880  0.16874793     0.73200
O90         O  0.99326834  0.40649670  0.30410235    -0.71670
O91         O  0.99742935  0.44928173  0.33692529    -0.50350
C92         C  0.49320812  0.41964685  0.33158211     0.74590
O93         O  0.40079447  0.49625641  0.19912022    -0.67000
O94         O  0.44009492  0.48777127  0.16329848    -0.54200
C95         C  0.41086435  0.49346894  0.17089828     0.72970
Zr96       Zr  0.42902743  0.99253902  0.24904240     2.77540
O97         O  0.39264519  0.44872874  0.24796658    -0.97750
O98         O  0.39011032  0.03428818  0.25005738    -0.78570
Zr99       Zr  0.99679648  0.42805184  0.24940190     2.70070
O100        O  0.45404874  0.38832480  0.24850693    -0.79820
O101        O  0.04083014  0.39193156  0.25309918    -0.98900
Zr102      Zr  0.49418234  0.49400204  0.18528742     2.21500
Zr103      Zr  0.99798641  0.99823535  0.30492411     2.11130
O104        O  0.46321553  0.46241805  0.27871909    -2.47590
O105        O  0.46202070  0.46092582  0.21828888    -0.79610
O106        O  0.46253142  0.02842775  0.27699248    -0.71810
O107        O  0.02859318  0.46182278  0.21671794    -2.32770
O108        O  0.46097009  0.02624937  0.21640158    -2.28970
O109        O  0.03125638  0.46317350  0.27689216    -0.73570
H110        H  0.04368382  0.04503637  0.28723303     0.78430
H111        H  0.04151891  0.44877797  0.20339930     0.79520
H112        H  0.45083154  0.45010129  0.29333767     0.81740
H113        H  0.44732836  0.03832790  0.20297855     0.79350
H114        H  0.09259481  0.43708468  0.23890064     0.42380
H115        H  0.05229850  0.39859379  0.27237446     0.41350
H116        H  0.43771736  0.39693184  0.23440065     0.41030
H117        H  0.39793091  0.43656400  0.26702744     0.38970
H118        H  0.39920570  0.05057011  0.26435132     0.42100
H119        H  0.43539211  0.09142150  0.23003059     0.36880
H120        H  0.05171306  0.09283951  0.22406051     0.43000
H121        H  0.09889805  0.04980733  0.26602120     0.39410
H122        H  0.37169341  0.45772405  0.25250397     0.44330
H123        H  0.45818057  0.11884925  0.24100669     0.43060
H124        H  0.11915020  0.03387855  0.23976580     0.43190
H125        H  0.03099074  0.37133715  0.25855403     0.43550
C126        C  0.38967998  0.00540109  0.14652782     0.03100
C127        C  0.40440445  0.03162110  0.13369699    -0.13050
C128        C  0.41113579  0.02845582  0.10248549     0.00600
C129        C  0.38857803  0.01418000  0.08274109    -0.11580
C130        C  0.36202937  0.99892026  0.09560666     0.03090
C131        C  0.36492252  0.99038768  0.12827910    -0.11000
H132        H  0.42103438  0.04531649  0.14798084     0.08690
H133        H  0.39241015  0.01285743  0.05786455     0.06220
H134        H  0.34980735  0.97234646  0.13838854     0.06060
C135        C  0.01616470  0.35433214  0.09996533     0.03100
C136        C  0.04222479  0.37253167  0.08973484    -0.13050
C137        C  0.04664858  0.40280855  0.10253437     0.00600
C138        C  0.04180862  0.40520154  0.13418940    -0.11580
C139        C  0.01393301  0.39133322  0.14529146     0.03090
C140        C  0.00055316  0.36480880  0.12819342    -0.11000
H141        H  0.05245852  0.36772263  0.06687746     0.08690
H142        H  0.05164444  0.42594251  0.14599804     0.06220
H143        H  0.97843588  0.35410518  0.13543702     0.06060
C144        C  0.14922150  0.00393790  0.10386978     0.03100
C145        C  0.13940700  0.03381715  0.09441346    -0.13050
C146        C  0.10742400  0.03718348  0.09469390     0.00600
C147        C  0.09422394  0.03209551  0.12407635    -0.11580
C148        C  0.10169762  0.00400881  0.13929083     0.03090
C149        C  0.13007493  0.98814249  0.12797659    -0.11000
H150        H  0.15235378  0.04656056  0.07635310     0.08690
H151        H  0.07295420  0.04395678  0.13029907     0.06220
H152        H  0.13590023  0.96477336  0.13612843     0.06060
C153        C  0.48482884  0.40066705  0.36058336     0.03100
C154        C  0.49606560  0.37009853  0.36953943    -0.13050
C155        C  0.48724659  0.35773599  0.39978702     0.00600
C156        C  0.46702977  0.37500961  0.41895635    -0.11580
C157        C  0.46388229  0.40646108  0.41369712     0.03090
C158        C  0.46716745  0.41738863  0.38295074    -0.11000
H159        H  0.51215063  0.35736733  0.35453316     0.08690
H160        H  0.46003908  0.36628429  0.44189760     0.06220
H161        H  0.46018208  0.44133690  0.37802179     0.06060
C162        C  0.10045020  0.98491012  0.35097526     0.03100
C163        C  0.08181690  0.97679874  0.37672336    -0.13050
C164        C  0.08836258  0.99181522  0.40458618     0.00600
C165        C  0.11588873  0.00862549  0.40859830    -0.11580
C166        C  0.14106973  0.00032829  0.39042643     0.03090
C167        C  0.13334665  0.99245387  0.35800673    -0.11000
H168        H  0.05920730  0.96472271  0.37393360     0.08690
H169        H  0.11949974  0.02194025  0.43009517     0.06220
H170        H  0.15117965  0.99253711  0.33986436     0.06060
C171        C  0.99087188  0.10270530  0.35102110     0.03100
C172        C  0.98624885  0.08522976  0.37817981    -0.13050
C173        C  0.00224557  0.09446336  0.40480400     0.00600
C174        C  0.01926596  0.12171667  0.40578248    -0.11580
C175        C  0.00798350  0.14568300  0.38756040     0.03090
C176        C  0.99723423  0.13627787  0.35626992    -0.11000
H177        H  0.97421300  0.06240171  0.37779914     0.08690
H178        H  0.03226260  0.12667922  0.42702309     0.06220
H179        H  0.99392579  0.15343009  0.33785212     0.06060
C180        C  0.39788529  0.49887937  0.35882822     0.03100
C181        C  0.41583071  0.49994665  0.38622311    -0.13050
C182        C  0.40442669  0.51390740  0.41350421     0.00600
C183        C  0.37539622  0.52707373  0.41348554    -0.11580
C184        C  0.35339677  0.51313780  0.39325078     0.03090
C185        C  0.36436195  0.50159053  0.36322324    -0.11000
H186        H  0.43974847  0.49136165  0.38615909     0.08690
H187        H  0.36800530  0.53974702  0.43443756     0.06220
H188        H  0.34795082  0.49417390  0.34504259     0.06060
O189        O  0.29617657  0.09197147  0.49120077    -0.75320
O190        O  0.33056208  0.05143313  0.48826668    -0.54230
C191        C  0.32978907  0.07681243  0.99871108     0.78410
O192        O  0.20153984  0.98926816  0.08995882    -0.59920
O193        O  0.16424221  0.99201832  0.05100801    -0.52950
C194        C  0.17281380  0.99146318  0.08061779     0.70420
O195        O  0.30733801  0.49116272  0.08412984    -0.74480
O196        O  0.34111740  0.49405349  0.04245839    -0.55040
C197        C  0.33415724  0.99342806  0.07360690     0.76420
O198        O  0.19673043  0.08635264  0.99982141    -0.59620
O199        O  0.16014619  0.04607362  0.99895502    -0.52740
C200        C  0.16797533  0.07602808  0.99872833     0.73020
Zr201      Zr  0.24889058  0.06103273  0.99816235     2.54710
O202        O  0.24986032  0.09723000  0.04284159    -0.80190
O203        O  0.23863246  0.10114694  0.45651422    -0.93610
Zr204      Zr  0.25251116  0.48967612  0.06191279     2.64680
O205        O  0.25434937  0.03490864  0.10035426    -0.98560
O206        O  0.25443542  0.44597373  0.09881551    -0.80620
O207        O  0.28070387  0.02703215  0.02911392    -0.83980
O208        O  0.21992580  0.02617641  0.03124006    -2.18690
O209        O  0.19770685  0.99710374  0.39849570    -0.67370
O210        O  0.16535958  0.99388605  0.44098508    -0.51940
C211        C  0.17097102  0.49776732  0.41081353     0.71400
O212        O  0.30593261  0.40652271  0.49199108    -0.60280
O213        O  0.33966505  0.44924400  0.49376467    -0.52250
C214        C  0.33356122  0.41911541  0.49510877     0.73200
O215        O  0.20123619  0.39742671  0.99716850    -0.71670
O216        O  0.16629654  0.43793413  0.99932890    -0.50350
C217        C  0.17542942  0.40727044  0.50010630     0.74590
O218        O  0.29742350  0.50555311  0.40072708    -0.67000
O219        O  0.33177056  0.49555536  0.44057279    -0.54200
C220        C  0.32534383  0.50290406  0.41169165     0.72970
Zr221      Zr  0.24760572  0.49713337  0.42773292     2.77540
O222        O  0.25076197  0.45240936  0.39163711    -0.97750
O223        O  0.24424737  0.03974078  0.38992766    -0.78570
Zr224      Zr  0.25089921  0.42633987  0.99144261     2.70070
O225        O  0.25157651  0.39344844  0.44450103    -0.79820
O226        O  0.25510949  0.38730240  0.03311536    -0.98900
Zr227      Zr  0.30902147  0.49816623  0.49306155     2.21500
Zr228      Zr  0.18784323  0.99441496  0.99694002     2.11130
O229        O  0.21872946  0.46082123  0.46000479    -2.47590
O230        O  0.28076925  0.46407446  0.45813395    -0.79610
O231        O  0.21697680  0.02737945  0.46270545    -0.71810
O232        O  0.28183492  0.45879583  0.02586824    -2.32770
O233        O  0.27658958  0.03045341  0.46105701    -2.28970
O234        O  0.22135205  0.45794974  0.02700411    -0.73570
H235        H  0.20681954  0.03860781  0.04497516     0.78430
H236        H  0.29614128  0.44585973  0.03770213     0.79520
H237        H  0.20510596  0.44762858  0.44709798     0.81740
H238        H  0.28907633  0.04436287  0.44799992     0.79350
H239        H  0.26989311  0.43120844  0.08969588     0.42380
H240        H  0.23791214  0.39228897  0.04798782     0.41350
H241        H  0.27083136  0.39935631  0.43265983     0.41030
H242        H  0.23028142  0.44110301  0.39369756     0.38970
H243        H  0.23247185  0.05629908  0.40128261     0.42100
H244        H  0.25611229  0.09807637  0.44145465     0.36880
H245        H  0.26648191  0.08898804  0.05683735     0.43000
H246        H  0.23442049  0.04646943  0.09744455     0.39410
H247        H  0.25004962  0.46196791  0.37046651     0.44330
H248        H  0.24356149  0.12157679  0.46700394     0.43060
H249        H  0.25198943  0.02444803  0.12098842     0.43190
H250        H  0.24869862  0.36692815  0.02331353     0.43550
O251        O  0.08909112  0.19225698  0.50376148    -0.75320
O252        O  0.04751180  0.15826706  0.49530040    -0.54230
C253        C  0.07813681  0.16535314  0.99760215     0.78410
O254        O  0.00046147  0.30031938  0.08738812    -0.59920
O255        O  0.00509447  0.33635629  0.04779222    -0.52950
C256        C  0.00523312  0.32878361  0.07732767     0.70420
O257        O  0.48183811  0.19534643  0.08616763    -0.74480
O258        O  0.49361859  0.15974612  0.04728886    -0.55040
C259        C  0.99294389  0.16650509  0.07522732     0.76420
O260        O  0.09504859  0.29461592  0.99241692    -0.59620
O261        O  0.05396244  0.32827280  0.99240336    -0.52740
C262        C  0.08390355  0.32249934  0.99050084     0.73020
Zr263      Zr  0.06478569  0.24548333  0.99857332     2.54710
O264        O  0.09779667  0.24974917  0.04532630    -0.80190
O265        O  0.10698988  0.23946449  0.46039097    -0.93610
Zr266      Zr  0.48923536  0.24692346  0.06179836     2.64680
O267        O  0.03305239  0.24184771  0.10351975    -0.98560
O268        O  0.44147889  0.25198532  0.09301966    -0.80620
O269        O  0.02814416  0.21615177  0.02951201    -0.83980
O270        O  0.03133572  0.27670393  0.03112616    -2.18690
O271        O  0.99872186  0.30253931  0.40529873    -0.67370
O272        O  0.00666499  0.33621039  0.44682393    -0.51940
C273        C  0.50010525  0.33038872  0.41705294     0.71400
O274        O  0.39994938  0.20475799  0.49082306    -0.60280
O275        O  0.43827468  0.16707035  0.49051193    -0.52250
C276        C  0.40881187  0.17599797  0.49190541     0.73200
O277        O  0.40664809  0.30024179  0.99226720    -0.71670
O278        O  0.44834425  0.33488222  0.99626101    -0.50350
C279        C  0.42240861  0.33420011  0.50041829     0.74590
O280        O  0.50152094  0.20139104  0.39863242    -0.67000
O281        O  0.49310854  0.16677111  0.43881726    -0.54200
C282        C  0.49797645  0.17333319  0.40907673     0.72970
Zr283      Zr  0.00288958  0.25016753  0.42872506     2.77540
O284        O  0.45995429  0.24717908  0.38863564    -0.97750
O285        O  0.04955471  0.25560698  0.39583058    -0.78570
Zr286      Zr  0.43089599  0.24777841  0.98797615     2.70070
O287        O  0.39797602  0.25712916  0.44455805    -0.79820
O288        O  0.38790452  0.24425830  0.02575065    -0.98900
Zr289      Zr  0.49366376  0.18740106  0.49395436     2.21500
Zr290      Zr  0.99995259  0.30800683  0.99726788     2.11130
O291        O  0.46780679  0.28229632  0.46046958    -2.47590
O292        O  0.46433821  0.22066608  0.45974017    -0.79610
O293        O  0.03583154  0.27739526  0.46536490    -0.71810
O294        O  0.46013438  0.21676862  0.02399353    -2.32770
O295        O  0.03275540  0.21711579  0.46330353    -2.28970
O296        O  0.46022470  0.27779644  0.02591498    -0.73570
H297        H  0.04459646  0.28978081  0.04449209     0.78430
H298        H  0.44573205  0.20305509  0.03518800     0.79520
H299        H  0.45608911  0.29703726  0.44792778     0.81740
H300        H  0.04577417  0.20328649  0.45088818     0.79350
H301        H  0.42754781  0.23444537  0.08574468     0.42380
H302        H  0.39210258  0.26159636  0.04098766     0.41350
H303        H  0.40268810  0.23791692  0.43212935     0.41030
H304        H  0.44547377  0.26459804  0.39382702     0.38970
H305        H  0.06406652  0.26959433  0.40795236     0.42100
H306        H  0.10154845  0.21999417  0.44844334     0.36880
H307        H  0.08975935  0.23291119  0.05937903     0.43000
H308        H  0.04870231  0.25901079  0.09988856     0.39410
H309        H  0.47050022  0.25398132  0.36901103     0.44330
H310        H  0.12619858  0.23409852  0.47239669     0.43060
H311        H  0.02187838  0.24823340  0.12290931     0.43190
H312        H  0.36898537  0.25095632  0.01400274     0.43550
C313        C  0.14280370  0.09853241  0.98794590     0.03100
C314        C  0.13103536  0.08987471  0.95829717    -0.13050
C315        C  0.10003129  0.09734858  0.95217452     0.00600
C316        C  0.09454738  0.12897665  0.95737457    -0.11580
C317        C  0.10129273  0.14032417  0.98746493     0.03090
C318        C  0.12687125  0.12452176  0.00403701    -0.11000
H319        H  0.14162420  0.07068692  0.94541696     0.08690
H320        H  0.07885486  0.14152360  0.94223724     0.06220
H321        H  0.13325441  0.13126474  0.02779283     0.06060
C322        C  0.14967940  0.38442523  0.50933381     0.03100
C323        C  0.12578742  0.39991485  0.52511240    -0.13050
C324        C  0.09689848  0.39943513  0.51022776     0.00600
C325        C  0.09044307  0.37758729  0.48688975    -0.11580
C326        C  0.10764625  0.35016973  0.48745564     0.03090
C327        C  0.14064520  0.35478636  0.49455155    -0.11000
H328        H  0.13135120  0.41897739  0.54150837     0.08690
H329        H  0.06836976  0.37867164  0.47393992     0.06220
H330        H  0.15789156  0.33717976  0.48848770     0.06060
C331        C  0.35294125  0.10347144  0.49259935     0.03100
C332        C  0.37852549  0.08747554  0.50402466    -0.13050
C333        C  0.40124311  0.10251709  0.52220655     0.00600
C334        C  0.40075588  0.13426253  0.52683570    -0.11580
C335        C  0.38604406  0.15127987  0.50335778     0.03090
C336        C  0.35818611  0.13711655  0.48856857    -0.11000
H337        H  0.38086751  0.06240740  0.49941273     0.08690
H338        H  0.41948070  0.14489283  0.54105011     0.06220
H339        H  0.34290181  0.15078842  0.47366227     0.06060
C340        C  0.40119948  0.36003492  0.51174060     0.03100
C341        C  0.41011804  0.37387028  0.54044777    -0.13050
C342        C  0.39943900  0.40408541  0.54787431     0.00600
C343        C  0.36960522  0.41170417  0.53787819    -0.11580
C344        C  0.35883943  0.39959183  0.50910038     0.03090
C345        C  0.37469290  0.37305827  0.49545863    -0.11000
H346        H  0.43116771  0.36554773  0.55218926     0.08690
H347        H  0.35906628  0.43284780  0.54762285     0.06220
H348        H  0.36756563  0.36383087  0.47272106     0.06060
O349        O  0.52824982  0.09755933  0.55616856    -0.86520
O350        O  0.01920536  0.41746645  0.56162757    -0.86680
O351        O  0.46533116  0.51847870  0.60778174    -0.88350
O352        O  0.06202793  0.02697165  0.59262934    -0.87110
O353        O  0.09667372  0.02385318  0.55172319    -0.86700
O354        O  0.44823111  0.54108521  0.56525469    -0.88070
O355        O  0.53419229  0.45668499  0.59599803    -0.86550
O356        O  0.53033229  0.06041560  0.59523442    -0.86130
Zr357      Zr  0.51329250  0.50838096  0.57737910     2.84310
O358        O  0.03618768  0.47370522  0.54342266    -1.08110
O359        O  0.48100545  0.03655331  0.54482797    -1.08840
C360        C  0.53502520  0.08857196  0.58439994     1.06590
C361        C  0.53421503  0.42753028  0.58572939     1.06530
C362        C  0.44293553  0.53188097  0.59267536     1.09520
C363        C  0.08934900  0.03141031  0.58040195     1.07290
H364        H  0.46335617  0.46567751  0.57092000     0.32850
O365        O  0.47400236  0.47627640  0.55386320    -1.29060
H366        H  0.05325782  0.05432373  0.54314045     0.32530
O367        O  0.03655541  0.03977151  0.53815113    -1.30740
O368        O  0.97767969  0.42063859  0.96691688    -0.86510
O369        O  0.49530904  0.09000261  0.95870209    -0.88010
O370        O  0.41648373  0.45556245  0.03243045    -0.86590
O371        O  0.08714860  0.45183877  0.51821194    -0.86640
O372        O  0.08368971  0.04838338  0.47797178    -0.86350
O373        O  0.41089866  0.05653055  0.03077752    -0.86160
O374        O  0.45148953  0.52989549  0.93026036    -0.86530
O375        O  0.03769540  0.99838476  0.91559993    -0.85990
O376        O  0.41507117  0.51097827  0.96487263    -0.87050
O377        O  0.08028850  0.99846089  0.94885306    -0.86210
O378        O  0.45389905  0.41693803  0.02882631    -0.86610
O379        O  0.45060845  0.09432641  0.03083470    -0.86330
O380        O  0.04869260  0.08904643  0.48137357    -0.85980
O381        O  0.04614291  0.41603207  0.51183826    -0.86390
O382        O  0.97274420  0.45974321  0.93066964    -0.86690
O383        O  0.01671496  0.04906132  0.92729619    -0.88020
Zr384      Zr  0.99509509  0.44537594  0.01708028     2.83100
Zr385      Zr  0.50656925  0.06960152  0.51118367     2.83500
Zr386      Zr  0.44172190  0.50528549  0.01697142     2.84090
Zr387      Zr  0.06326273  0.00467073  0.50812759     2.83360
Zr388      Zr  0.99440818  0.00486128  0.95041766     2.84220
O389        O  0.03067653  0.03364095  0.97755910    -1.08600
O390        O  0.46577560  0.47227276  0.98206164    -1.08100
C391        C  0.97050233  0.43098396  0.93907735     1.06560
C392        C  0.00812793  0.07714750  0.93173156     1.09180
C393        C  0.42577034  0.42656771  0.03450437     1.06740
C394        C  0.07531989  0.42402540  0.51457514     1.07100
C395        C  0.07444384  0.07640762  0.47101908     1.06680
C396        C  0.42155957  0.08461057  0.03575129     1.06230
C397        C  0.42392773  0.52120479  0.93743282     1.06660
C398        C  0.06723065  0.99828852  0.92203504     1.06170
H399        H  0.45087100  0.05616967  0.97754601     0.32850
O400        O  0.46449547  0.04059776  0.98669535    -1.29690
H401        H  0.03624992  0.45651877  0.96832198     0.32870
O402        O  0.02709972  0.47177363  0.98244155    -1.31080
C403        C  0.00280213  0.10373895  0.64232796     0.03100
C404        C  0.03548511  0.10412703  0.63722396    -0.13050
C405        C  0.04474556  0.11297992  0.60725483     0.00600
C406        C  0.03415170  0.14246135  0.59924999    -0.11580
C407        C  0.00138470  0.14614133  0.60116995     0.03090
C408        C  0.98444712  0.12571229  0.62336262    -0.11000
H409        H  0.05026420  0.08806353  0.65013427     0.08690
H410        H  0.04779977  0.15591946  0.58225523     0.06220
H411        H  0.95900381  0.12617863  0.62501500     0.06060
O412        O  0.48863215  0.08785295  0.69352824    -0.75320
O413        O  0.49552304  0.04808899  0.65774047    -0.54230
C414        C  0.99259403  0.07838130  0.66532615     0.78410
O415        O  0.09486867  0.99210301  0.79129621    -0.59920
O416        O  0.05399501  0.99397232  0.82547749    -0.52950
C417        C  0.08397427  0.99088343  0.81928409     0.70420
O418        O  0.08884596  0.49167050  0.69409017    -0.74480
O419        O  0.04939700  0.49496218  0.65753724    -0.55040
C420        C  0.07901700  0.99405258  0.66374362     0.76420
O421        O  0.99205317  0.09168295  0.79436953    -0.59620
O422        O  0.99677942  0.05062857  0.82806720    -0.52740
C423        C  0.99333686  0.08061655  0.82235864     0.72980
Zr424      Zr  0.49439310  0.06282046  0.74453397     2.54710
O425        O  0.03769241  0.10074414  0.74159640    -0.80190
O426        O  0.44989573  0.09859741  0.74691900    -0.93610
Zr427      Zr  0.06330221  0.49697978  0.74501173     2.64680
O428        O  0.09719001  0.04460480  0.74073814    -0.98560
O429        O  0.10427627  0.45727907  0.74337203    -0.80620
O430        O  0.02853436  0.02958307  0.71343745    -0.83980
O431        O  0.03128549  0.03165520  0.77371758    -2.18690
O432        O  0.40434283  0.99435236  0.80102940    -0.67370
O433        O  0.44751332  0.99767109  0.83259771    -0.51940
C434        C  0.41838859  0.49397803  0.82773526     0.71400
O435        O  0.49997765  0.40194696  0.69694763    -0.60280
O436        O  0.49634944  0.44076151  0.65955458    -0.52250
C437        C  0.50022008  0.41168801  0.66840336     0.73200
O438        O  0.99296354  0.40707072  0.80401802    -0.71670
O439        O  0.99781241  0.45001226  0.83654530    -0.50350
C440        C  0.49581313  0.41861009  0.83017333     0.74590
O441        O  0.40214749  0.49035550  0.69821032    -0.67000
O442        O  0.44152499  0.48822993  0.66136651    -0.54200
C443        C  0.41194897  0.49045122  0.66976672     0.72970
Zr444      Zr  0.42920148  0.99320329  0.74836771     2.77540
O445        O  0.39543935  0.44531524  0.74805778    -0.97750
O446        O  0.39046337  0.03512147  0.74887917    -0.78570
Zr447      Zr  0.99700999  0.42853065  0.74938013     2.70070
O448        O  0.45734929  0.38739987  0.74720274    -0.79820
O449        O  0.04108626  0.39248247  0.75328101    -0.98900
Zr450      Zr  0.49581798  0.49378495  0.68375008     2.21500
Zr451      Zr  0.99969492  0.99738642  0.80467485     2.11130
O452        O  0.46543217  0.46106420  0.77793869    -2.47590
O453        O  0.46449943  0.45982763  0.71687329    -0.79610
O454        O  0.46253606  0.02937163  0.77632718    -0.71810
O455        O  0.02899503  0.46208964  0.71670260    -2.32770
O456        O  0.46139908  0.02677355  0.71576759    -2.28970
O457        O  0.03136999  0.46368194  0.77698856    -0.73570
H458        H  0.04426020  0.04526438  0.78685974     0.78430
H459        H  0.04192654  0.44894617  0.70348959     0.79520
H460        H  0.45325720  0.44843622  0.79246467     0.81740
H461        H  0.44781108  0.03879760  0.70224173     0.79350
H462        H  0.09285603  0.43719949  0.73884844     0.42380
H463        H  0.05238145  0.39908291  0.77267666     0.41350
H464        H  0.44108161  0.39568634  0.73282955     0.41030
H465        H  0.40088927  0.43383384  0.76749105     0.38970
H466        H  0.39919472  0.05112951  0.76368901     0.42100
H467        H  0.43585541  0.09198060  0.72939087     0.36880
H468        H  0.05002519  0.09427356  0.72295212     0.43000
H469        H  0.09853346  0.05234611  0.76270789     0.39410
H470        H  0.37421578  0.45387389  0.75217577     0.44330
H471        H  0.45860290  0.11939255  0.74046238     0.43060
H472        H  0.11852422  0.03656196  0.73615779     0.43190
H473        H  0.03123974  0.37184633  0.75856996     0.43550
C474        C  0.39009756  0.00546460  0.64571278     0.03100
C475        C  0.40522230  0.03163788  0.63336762    -0.13050
C476        C  0.41185971  0.02876568  0.60222086     0.00600
C477        C  0.38869085  0.01567484  0.58212414    -0.11580
C478        C  0.36176512  0.00073352  0.59467646     0.03090
C479        C  0.36486088  0.99129545  0.62721448    -0.11000
H480        H  0.42209405  0.04489595  0.64777863     0.08690
H481        H  0.39230746  0.01478671  0.55713733     0.06220
H482        H  0.34955003  0.97323730  0.63700189     0.06060
C483        C  0.01739957  0.35455464  0.60025856     0.03100
C484        C  0.04469330  0.37169417  0.59148474    -0.13050
C485        C  0.04916499  0.40200243  0.60430411     0.00600
C486        C  0.04323178  0.40440443  0.63578044    -0.11580
C487        C  0.01454272  0.39129299  0.64572888     0.03090
C488        C  0.00095999  0.36540667  0.62786018    -0.11000
H489        H  0.05584609  0.36648143  0.56915453     0.08690
H490        H  0.05317367  0.42483362  0.64802899     0.06220
H491        H  0.97819075  0.35544996  0.63408036     0.06060
C492        C  0.14756315  0.99993747  0.60001497     0.03100
C493        C  0.14287210  0.03220502  0.59494911    -0.13050
C494        C  0.11368610  0.04311836  0.60280187     0.00600
C495        C  0.10509648  0.03575926  0.63349174    -0.11580
C496        C  0.10442743  0.00335086  0.64025694     0.03090
C497        C  0.12703666  0.98415104  0.62289705    -0.11000
H498        H  0.15579399  0.04468906  0.57671883     0.08690
H499        H  0.08882829  0.05117284  0.64545206     0.06220
H500        H  0.12796751  0.95886423  0.62624978     0.06060
C501        C  0.48575765  0.39973495  0.85850817     0.03100
C502        C  0.49754331  0.36992419  0.86946282    -0.13050
C503        C  0.48689995  0.35809810  0.89941982     0.00600
C504        C  0.46485242  0.37570872  0.91620300    -0.11580
C505        C  0.46103432  0.40701919  0.90914526     0.03090
C506        C  0.46524535  0.41631196  0.87827717    -0.11000
H507        H  0.51521063  0.35741529  0.85616227     0.08690
H508        H  0.45662208  0.36781637  0.93902814     0.06220
H509        H  0.45750764  0.43973442  0.87185458     0.06060
C510        C  0.10470770  0.98445842  0.84769077     0.03100
C511        C  0.08586554  0.97776700  0.87324555    -0.13050
C512        C  0.08923957  0.99829421  0.89785627     0.00600
C513        C  0.11730928  0.01451176  0.90296157    -0.11580
C514        C  0.14339400  0.00324438  0.88807331     0.03090
C515        C  0.13731604  0.99294260  0.85574452    -0.11000
H516        H  0.06420147  0.96388684  0.87101039     0.08690
H517        H  0.12000148  0.02915133  0.92364836     0.06220
H518        H  0.15606668  0.99145431  0.83862577     0.06060
C519        C  0.99218624  0.10170239  0.85135570     0.03100
C520        C  0.99136957  0.08413126  0.87875938    -0.13050
C521        C  0.00757960  0.09525289  0.90449359     0.00600
C522        C  0.02140738  0.12417667  0.90469100    -0.11580
C523        C  0.00685075  0.14656876  0.88673681     0.03090
C524        C  0.99536245  0.13576268  0.85612622    -0.11000
H525        H  0.98139306  0.06036792  0.87938714     0.08690
H526        H  0.03426360  0.13079227  0.92555150     0.06220
H527        H  0.98903328  0.15226013  0.83792640     0.06060
C528        C  0.39892162  0.49775473  0.85743930     0.03100
C529        C  0.41705818  0.50395436  0.88408250    -0.13050
C530        C  0.40431884  0.51834504  0.91036036     0.00600
C531        C  0.37371893  0.52707970  0.91061879    -0.11580
C532        C  0.35326403  0.50936509  0.89175093     0.03090
C533        C  0.36522069  0.49686731  0.86238847    -0.11000
H534        H  0.44189965  0.49830653  0.88454240     0.08690
H535        H  0.36527377  0.53994900  0.93107890     0.06220
H536        H  0.34955336  0.48604657  0.84522644     0.06060
O537        O  0.30114471  0.08646629  0.99828271    -0.75320
O538        O  0.33782805  0.04724150  0.99664425    -0.54230
C539        C  0.32439037  0.08154096  0.48886708     0.78410
O540        O  0.19945045  0.98576608  0.58564995    -0.59920
O541        O  0.16173617  0.98847287  0.54706789    -0.52950
C542        C  0.17051428  0.98741922  0.57644332     0.70420
O543        O  0.30533484  0.49277108  0.58447498    -0.74480
O544        O  0.33909523  0.49931715  0.54319483    -0.55040
C545        C  0.33373474  0.99569915  0.57231655     0.76420
O546        O  0.19393142  0.08481319  0.50059521    -0.59620
O547        O  0.15931956  0.04302785  0.49605459    -0.52740
C548        C  0.16582510  0.07335508  0.49754601     0.73020
Zr549      Zr  0.24655405  0.06148513  0.49692953     2.54710
O550        O  0.24977011  0.09572518  0.54305157    -0.80190
O551        O  0.24734207  0.10080802  0.95705862    -0.93610
Zr552      Zr  0.25148447  0.49134498  0.56102027     2.64680
O553        O  0.25098421  0.03329037  0.59987800    -0.98560
O554        O  0.25437955  0.44747999  0.59765821    -0.80620
O555        O  0.27931060  0.02823844  0.52811878    -0.83980
O556        O  0.21877198  0.02495260  0.52959341    -2.18690
O557        O  0.19879763  0.99696200  0.89988097    -0.67370
O558        O  0.16471724  0.99817433  0.94134166    -0.51940
C559        C  0.17082819  0.49751198  0.91203297     0.71400
O560        O  0.30296526  0.40234789  0.99206140    -0.60280
O561        O  0.33763387  0.44425442  0.99084076    -0.52250
C562        C  0.33093249  0.41435397  0.99327411     0.73200
O563        O  0.20371729  0.39766758  0.49671276    -0.71670
O564        O  0.16725025  0.43690299  0.49844200    -0.50350
C565        C  0.17334207  0.40803002  0.00068657     0.74590
O566        O  0.29761645  0.50036778  0.90007507    -0.67000
O567        O  0.33246245  0.49417429  0.94034738    -0.54200
C568        C  0.32568663  0.49904118  0.91097251     0.72970
Zr569      Zr  0.24803963  0.49575657  0.92838427     2.77540
O570        O  0.24877222  0.45149306  0.89153835    -0.97750
O571        O  0.24578185  0.04016003  0.89277389    -0.78570
Zr572      Zr  0.25250598  0.42794201  0.49047332     2.70070
O573        O  0.24852176  0.39120412  0.94598957    -0.79820
O574        O  0.25884176  0.38767316  0.53066174    -0.98900
Zr575      Zr  0.31014575  0.49479855  0.99327650     2.21500
Zr576      Zr  0.18849204  0.99167924  0.49512994     2.11130
O577        O  0.21833012  0.46022233  0.96083169    -2.47590
O578        O  0.28014425  0.46166335  0.95885195    -0.79610
O579        O  0.21788967  0.02843611  0.96405433    -0.71810
O580        O  0.28168120  0.46137970  0.52524857    -2.32770
O581        O  0.27874522  0.02938379  0.96268801    -2.28970
O582        O  0.22173663  0.45861808  0.52592045    -0.73570
H583        H  0.20496981  0.03659223  0.54332410     0.78430
H584        H  0.29623469  0.44894672  0.53730800     0.79520
H585        H  0.20430869  0.44739480  0.94798787     0.81740
H586        H  0.29208453  0.04298916  0.95012724     0.79350
H587        H  0.26976663  0.43284961  0.58820195     0.42380
H588        H  0.24196032  0.39173080  0.54616571     0.41350
H589        H  0.26662844  0.39784691  0.93281443     0.41030
H590        H  0.22838911  0.44025583  0.89461308     0.38970
H591        H  0.23408179  0.05670158  0.90423173     0.42100
H592        H  0.26621559  0.09688637  0.94401562     0.36880
H593        H  0.26819430  0.08805462  0.55497761     0.43000
H594        H  0.23064020  0.04404980  0.59673119     0.39410
H595        H  0.24691843  0.46131532  0.87056273     0.44330
H596        H  0.25207399  0.12101281  0.96805213     0.43060
H597        H  0.24849195  0.02210044  0.62011461     0.43190
H598        H  0.25265923  0.36747887  0.52035791     0.43550
O599        O  0.08900241  0.19334634  0.00293281    -0.75320
O600        O  0.04805463  0.15879093  0.99383892    -0.54230
C601        C  0.07771618  0.16441460  0.49862519     0.78410
O602        O  0.00049793  0.30125199  0.58711170    -0.59920
O603        O  0.00738761  0.33700082  0.54755353    -0.52950
C604        C  0.00645130  0.32949319  0.57713141     0.70420
O605        O  0.48661140  0.19697027  0.58574705    -0.74480
O606        O  0.49140245  0.15996923  0.54648691    -0.55040
C607        C  0.98991142  0.16867089  0.57653461     0.76420
O608        O  0.09698182  0.29348301  0.49317228    -0.59620
O609        O  0.05645806  0.32776047  0.49202881    -0.52740
C610        C  0.08633306  0.32152097  0.49053030     0.73020
Zr611      Zr  0.06575928  0.24488051  0.49985979     2.54710
O612        O  0.09797718  0.24863785  0.54718868    -0.80190
O613        O  0.10547825  0.24045544  0.95850709    -0.93610
Zr614      Zr  0.49362554  0.24892721  0.56139601     2.64680
O615        O  0.03227565  0.24190816  0.60346585    -0.98560
O616        O  0.44809219  0.25474430  0.59563634    -0.80620
O617        O  0.02801794  0.21638627  0.53042212    -0.83980
O618        O  0.03221151  0.27696347  0.53150450    -2.18690
O619        O  0.99618282  0.30346682  0.90554709    -0.67370
O620        O  0.00267313  0.33656531  0.94769881    -0.51940
C621        C  0.49879807  0.33080684  0.91818355     0.71400
O622        O  0.40598420  0.19529521  0.98679753    -0.60280
O623        O  0.44536097  0.15865266  0.98913673    -0.52250
C624        C  0.41592451  0.16684480  0.98940189     0.73200
O625        O  0.40994549  0.30679201  0.49514439    -0.71670
O626        O  0.45268854  0.33990565  0.50096090    -0.50350
C627        C  0.41842188  0.32821424  0.99631567     0.74590
O628        O  0.50636516  0.20214243  0.89803549    -0.67000
O629        O  0.49981605  0.16756877  0.93838885    -0.54200
C630        C  0.50407307  0.17401489  0.90851364     0.72970
Zr631      Zr  0.00048877  0.25066702  0.92853570     2.77540
O632        O  0.46520696  0.24690408  0.88718932    -0.97750
O633        O  0.04650091  0.25645581  0.89479286    -0.78570
Zr634      Zr  0.43116319  0.25327497  0.49109130     2.70070
O635        O  0.39833817  0.24893327  0.94081832    -0.79820
O636        O  0.39022475  0.25316788  0.53120011    -0.98900
Zr637      Zr  0.49660614  0.18623551  0.99419978     2.21500
Zr638      Zr  0.00203934  0.30856869  0.49684935     2.11130
O639        O  0.46765009  0.27930437  0.95970087    -2.47590
O640        O  0.46771152  0.21803044  0.95820965    -0.79610
O641        O  0.03380279  0.27791332  0.96484844    -0.71810
O642        O  0.46071875  0.22035474  0.52545655    -2.32770
O643        O  0.03162529  0.21764270  0.96213745    -2.28970
O644        O  0.46415850  0.28133691  0.52724294    -0.73570
H645        H  0.04546363  0.28986844  0.54503925     0.78430
H646        H  0.44620302  0.20746753  0.53746779     0.79520
H647        H  0.45582070  0.29350255  0.94664971     0.81740
H648        H  0.04455250  0.20407013  0.94934273     0.79350
H649        H  0.43286117  0.23832596  0.58835689     0.42380
H650        H  0.39667685  0.27004463  0.54619348     0.41350
H651        H  0.40600922  0.23118454  0.92777161     0.41030
H652        H  0.44946954  0.26314364  0.89251723     0.38970
H653        H  0.06272880  0.26681636  0.90823666     0.42100
H654        H  0.10039768  0.22059894  0.94705094     0.36880
H655        H  0.08981647  0.23153398  0.56085304     0.43000
H656        H  0.04815563  0.25893706  0.60020070     0.39410
H657        H  0.47617884  0.25527384  0.86840768     0.44330
H658        H  0.12502712  0.23587582  0.97030935     0.43060
H659        H  0.02102359  0.24816261  0.62285268     0.43190
H660        H  0.37131296  0.26148318  0.52054528     0.43550
C661        C  0.14021126  0.09576780  0.48747813     0.03100
C662        C  0.12764124  0.08776388  0.45795032    -0.13050
C663        C  0.09676718  0.09634599  0.45250910     0.00600
C664        C  0.09256151  0.12816764  0.45776844    -0.11580
C665        C  0.10022156  0.13909292  0.48782620     0.03090
C666        C  0.12559391  0.12240057  0.50383687    -0.11000
H667        H  0.13743538  0.06857334  0.44446177     0.08690
H668        H  0.07657060  0.14114335  0.44321742     0.06220
H669        H  0.13275651  0.12897244  0.52742181     0.06060
C670        C  0.14658132  0.38613004  0.00909137     0.03100
C671        C  0.12257497  0.40230345  0.02398167    -0.13050
C672        C  0.09377338  0.40145067  0.00898164     0.00600
C673        C  0.08720442  0.37866140  0.98661586    -0.11580
C674        C  0.10473880  0.35141924  0.98771153     0.03090
C675        C  0.13767038  0.35622844  0.99489637    -0.11000
H676        H  0.12802800  0.42167868  0.04004648     0.08690
H677        H  0.06501727  0.37920329  0.97382035     0.06220
H678        H  0.15497062  0.33851613  0.98931507     0.06060
C679        C  0.35457471  0.10044462  0.00867216     0.03100
C680        C  0.36641162  0.09600371  0.03911112    -0.13050
C681        C  0.39700116  0.10715765  0.04516560     0.00600
C682        C  0.40328669  0.13710380  0.03483268    -0.11580
C683        C  0.39408137  0.14372529  0.00403153     0.03090
C684        C  0.36913062  0.12491603  0.98998977    -0.11000
H685        H  0.35753660  0.07623527  0.05280504     0.08690
H686        H  0.42325703  0.14957834  0.04534307     0.06220
H687        H  0.36221783  0.12838909  0.96577659     0.06060
C688        C  0.39800380  0.35441827  0.00771393     0.03100
C689        C  0.41116512  0.37103550  0.03326829    -0.13050
C690        C  0.40187341  0.40168374  0.03948972     0.00600
C691        C  0.37150164  0.40957261  0.03187539    -0.11580
C692        C  0.35683595  0.39495585  0.00606330     0.03090
C693        C  0.37006602  0.36658494  0.99336418    -0.11000
H694        H  0.43324223  0.36337388  0.04348691     0.08690
H695        H  0.36265479  0.43175422  0.04099974     0.06220
H696        H  0.36009762  0.35550937  0.97254617     0.06060
O697        O  0.52989996  0.59407189  0.05503804    -0.86520
O698        O  0.02610569  0.91601107  0.05293229    -0.86680
O699        O  0.46599396  0.01877912  0.11152794    -0.88350
O700        O  0.06167271  0.52636105  0.09379138    -0.87110
O701        O  0.09644573  0.52357749  0.05296764    -0.86700
O702        O  0.45240501  0.03670951  0.06658835    -0.88070
O703        O  0.53104608  0.95734700  0.09498246    -0.86550
O704        O  0.53309478  0.55556489  0.09265715    -0.86130
Zr705      Zr  0.51043777  0.00942198  0.07739833     2.84310
O706        O  0.04005205  0.96988693  0.03651371    -1.08110
O707        O  0.48301709  0.53264044  0.04081960    -1.08840
C708        C  0.53713949  0.58422249  0.08280025     1.06590
C709        C  0.53059356  0.92828602  0.08455045     1.06530
C710        C  0.44427651  0.02937891  0.09397618     1.09520
C711        C  0.08903856  0.53087577  0.08168608     1.07290
H712        H  0.45904322  0.96767639  0.06973293     0.32850
O713        O  0.46979001  0.97868587  0.05299090    -1.29060
H714        H  0.05325757  0.55432686  0.04429235     0.32530
O715        O  0.03645190  0.53997457  0.03907366    -1.30740
O716        O  0.97812471  0.91971024  0.46690862    -0.86510
O717        O  0.50004872  0.58687545  0.45819791    -0.88010
O718        O  0.41362470  0.95897500  0.53971348    -0.86590
O719        O  0.08594971  0.94962630  0.98622541    -0.86640
O720        O  0.08456754  0.54892765  0.97979120    -0.86350
O721        O  0.41812241  0.55483396  0.52680277    -0.86160
O722        O  0.45270662  0.02135942  0.43304793    -0.86530
O723        O  0.04041260  0.49016904  0.42394277    -0.85990
O724        O  0.41403476  0.01131870  0.46911496    -0.87050
O725        O  0.08283392  0.48998480  0.45756297    -0.86210
O726        O  0.45104775  0.92036213  0.53834996    -0.86610
O727        O  0.45561094  0.59387650  0.51806924    -0.86330
O728        O  0.04948474  0.58955172  0.98282932    -0.85980
O729        O  0.04432709  0.91430500  0.98499760    -0.86390
O730        O  0.97253513  0.95881288  0.43078620    -0.86690
O731        O  0.00981704  0.54454371  0.42626244    -0.88020
Zr732      Zr  0.99549789  0.94481337  0.51694766     2.83100
Zr733      Zr  0.50641397  0.56904874  0.00967948     2.83500
Zr734      Zr  0.44049863  0.00733533  0.52166684     2.84090
Zr735      Zr  0.06315711  0.50502126  0.00900199     2.83360
Zr736      Zr  0.99712216  0.50081768  0.45630391     2.84220
O737        O  0.03230975  0.53265589  0.48092631    -1.08600
O738        O  0.46415451  0.97247484  0.48804756    -1.08100
C739        C  0.97070958  0.93002935  0.43911488     1.06560
C740        C  0.00530727  0.57358836  0.43174989     1.09180
C741        C  0.42285038  0.92999772  0.54299185     1.06740
C742        C  0.07277979  0.92305838  0.97795279     1.07100
C743        C  0.07543216  0.57698690  0.97284649     1.06680
C744        C  0.42724856  0.58316510  0.52220881     1.06230
C745        C  0.42425869  0.01704768  0.44078216     1.06660
C746        C  0.06971736  0.48892700  0.43039539     1.06170
H747        H  0.45611552  0.55109788  0.47551661     0.32850
O748        O  0.46952412  0.53642506  0.48623086    -1.29690
H749        H  0.03631794  0.95581471  0.46788267     0.32870
O750        O  0.02721769  0.97111505  0.48198651    -1.31080
C751        C  0.00170626  0.60304817  0.14289326     0.03100
C752        C  0.03445328  0.60406003  0.13815190    -0.13050
C753        C  0.04389044  0.61309914  0.10829678     0.00600
C754        C  0.03275607  0.64237525  0.10018262    -0.11580
C755        C  0.99984776  0.64520289  0.10144781     0.03090
C756        C  0.98309609  0.62451052  0.12356090    -0.11000
H757        H  0.04943791  0.58833445  0.15126022     0.08690
H758        H  0.04636818  0.65617770  0.08343565     0.06220
H759        H  0.95761980  0.62438357  0.12486940     0.06060
O760        O  0.49102942  0.58701391  0.19276710    -0.75320
O761        O  0.49402949  0.54661788  0.15702654    -0.54230
C762        C  0.99176608  0.57767968  0.16599109     0.78410
O763        O  0.09186028  0.49167184  0.29466185    -0.59920
O764        O  0.05119619  0.49472565  0.32923994    -0.52950
C765        C  0.08097393  0.49119098  0.32276945     0.70420
O766        O  0.08831929  0.99301153  0.19270991    -0.74480
O767        O  0.04761750  0.99526182  0.15744618    -0.55040
C768        C  0.07884061  0.49367108  0.16547790     0.76420
O769        O  0.99105990  0.59191253  0.29490114    -0.59620
O770        O  0.99525554  0.55063572  0.32824661    -0.52740
C771        C  0.99195946  0.58063253  0.32280208     0.72980
Zr772      Zr  0.49470202  0.56276104  0.24450353     2.54710
O773        O  0.03724150  0.60025306  0.24212631    -0.80190
O774        O  0.45141759  0.60007316  0.24477070    -0.93610
Zr775      Zr  0.06300333  0.99639997  0.24416402     2.64680
O776        O  0.09682440  0.54362995  0.24342819    -0.98560
O777        O  0.10315889  0.95592567  0.24126384    -0.80620
O778        O  0.02798028  0.52901066  0.21478927    -0.83980
O779        O  0.03023836  0.53142235  0.27491398    -2.18690
O780        O  0.40429487  0.49467931  0.30167997    -0.67370
O781        O  0.44766135  0.49763871  0.33312472    -0.51940
C782        C  0.41755880  0.99596201  0.32923258     0.71400
O783        O  0.49910181  0.90206298  0.19795038    -0.60280
O784        O  0.49503572  0.94101583  0.16076610    -0.52250
C785        C  0.49905975  0.91186267  0.16936407     0.73200
O786        O  0.99268108  0.90706111  0.30362843    -0.71670
O787        O  0.99732659  0.95003360  0.33614217    -0.50350
C788        C  0.49355455  0.91941596  0.33197182     0.74590
O789        O  0.40078630  0.99195348  0.19947341    -0.67000
O790        O  0.44047733  0.98995326  0.16301432    -0.54200
C791        C  0.41080892  0.99213639  0.17111862     0.72970
Zr792      Zr  0.42862855  0.49405902  0.24893385     2.77540
O793        O  0.39391961  0.94650691  0.24938029    -0.97750
O794        O  0.39033410  0.53629394  0.25201152    -0.78570
Zr795      Zr  0.99595109  0.92849228  0.24895382     2.70070
O796        O  0.45513688  0.88792312  0.24787360    -0.79820
O797        O  0.03980866  0.89211612  0.25222321    -0.98900
Zr798      Zr  0.49501271  0.99403552  0.18520021     2.21500
Zr799      Zr  0.99824537  0.49734290  0.30562404     2.11130
O800        O  0.46377672  0.96153043  0.27910562    -2.47590
O801        O  0.46316805  0.96038053  0.21818975    -0.79610
O802        O  0.46289083  0.52948270  0.27659270    -0.71810
O803        O  0.02822464  0.96163796  0.21617925    -2.32770
O804        O  0.46088752  0.52724498  0.21612174    -2.28970
O805        O  0.03067909  0.96352056  0.27630403    -0.73570
H806        H  0.04314859  0.54501094  0.28813854     0.78430
H807        H  0.04087652  0.94846034  0.20271788     0.79520
H808        H  0.45143703  0.94914349  0.29369919     0.81740
H809        H  0.44748865  0.53944874  0.20256653     0.79350
H810        H  0.09135206  0.93619134  0.23623450     0.42380
H811        H  0.05155321  0.89878089  0.27133319     0.41350
H812        H  0.43923039  0.89639275  0.23320855     0.41030
H813        H  0.39915585  0.93515852  0.26895008     0.38970
H814        H  0.40107535  0.55321050  0.26432911     0.42100
H815        H  0.43764283  0.59354246  0.22700686     0.36880
H816        H  0.04960981  0.59348534  0.22361144     0.43000
H817        H  0.09816240  0.55103649  0.26551070     0.39410
H818        H  0.37273099  0.95524604  0.25328486     0.44330
H819        H  0.46100735  0.62042085  0.23811853     0.43060
H820        H  0.11807513  0.53538678  0.23882601     0.43190
H821        H  0.02991822  0.87160040  0.25787196     0.43550
C822        C  0.39153358  0.50666128  0.14490426     0.03100
C823        C  0.40975167  0.52914004  0.12974185    -0.13050
C824        C  0.41667474  0.52163535  0.09935655     0.00600
C825        C  0.39263055  0.50848806  0.08037706    -0.11580
C826        C  0.36408329  0.49789584  0.09413042     0.03090
C827        C  0.36562385  0.49257538  0.12757738    -0.11000
H828        H  0.42742933  0.54256665  0.14299067     0.08690
H829        H  0.39630105  0.50567475  0.05551796     0.06220
H830        H  0.34836936  0.47762392  0.13914905     0.06060
C831        C  0.01081308  0.85258138  0.10025372     0.03100
C832        C  0.03826010  0.86813086  0.08976520    -0.13050
C833        C  0.04494276  0.89826476  0.10129871     0.00600
C834        C  0.03915544  0.90302501  0.13269340    -0.11580
C835        C  0.01070769  0.89091071  0.14436048     0.03090
C836        C  0.99577570  0.86481073  0.12800847    -0.11000
H837        H  0.04862796  0.86140090  0.06744199     0.08690
H838        H  0.04991229  0.92376553  0.14370275     0.06220
H839        H  0.97309243  0.85561876  0.13551687     0.06060
C840        C  0.14785967  0.49989341  0.10176642     0.03100
C841        C  0.14261702  0.53200863  0.09639646    -0.13050
C842        C  0.11327176  0.54260341  0.10417030     0.00600
C843        C  0.10459326  0.53535476  0.13485583    -0.11580
C844        C  0.10436932  0.50303309  0.14194153     0.03090
C845        C  0.12740020  0.48403089  0.12477202    -0.11000
H846        H  0.15535013  0.54450636  0.07804074     0.08690
H847        H  0.08795371  0.55060833  0.14653182     0.06220
H848        H  0.12866829  0.45879433  0.12833160     0.06060
C849        C  0.48492631  0.90067711  0.36101129     0.03100
C850        C  0.49589893  0.87007237  0.37010932    -0.13050
C851        C  0.48708982  0.85799997  0.40045232     0.00600
C852        C  0.46712677  0.87560330  0.41959716    -0.11580
C853        C  0.46409097  0.90704749  0.41409792     0.03090
C854        C  0.46746872  0.91775819  0.38331130    -0.11000
H855        H  0.51181783  0.85709915  0.35513112     0.08690
H856        H  0.46012486  0.86706944  0.44260576     0.06220
H857        H  0.46063104  0.94176126  0.37827117     0.06060
C858        C  0.10177329  0.48505266  0.35098647     0.03100
C859        C  0.08400995  0.47542629  0.37678115    -0.13050
C860        C  0.09060856  0.48990716  0.40498676     0.00600
C861        C  0.11665702  0.50904927  0.40841039    -0.11580
C862        C  0.14206617  0.50179436  0.39028722     0.03090
C863        C  0.13446478  0.49380602  0.35783219    -0.11000
H864        H  0.06185560  0.46251553  0.37400063     0.08690
H865        H  0.11972899  0.52274765  0.42978721     0.06220
H866        H  0.15216625  0.49471180  0.33957925     0.06060
C867        C  0.99025860  0.60117877  0.35209782     0.03100
C868        C  0.98864487  0.58292874  0.37902235    -0.13050
C869        C  0.00504960  0.59277903  0.40508150     0.00600
C870        C  0.01790881  0.62222507  0.40692618    -0.11580
C871        C  0.00411245  0.64506685  0.38884634     0.03090
C872        C  0.99370440  0.63504606  0.35765379    -0.11000
H873        H  0.97809212  0.55938953  0.37886052     0.08690
H874        H  0.03012561  0.62848841  0.42833986     0.06220
H875        H  0.98825341  0.65199504  0.33957767     0.06060
C876        C  0.39822382  0.99933919  0.35900680     0.03100
C877        C  0.41624380  0.00214846  0.38629971    -0.13050
C878        C  0.40432210  0.01600748  0.41345554     0.00600
C879        C  0.37447985  0.02726232  0.41358125    -0.11580
C880        C  0.35318087  0.01242826  0.39315915     0.03090
C881        C  0.36465533  0.00087455  0.36336135    -0.11000
H882        H  0.44044789  0.99434378  0.38640469     0.08690
H883        H  0.36643554  0.03939694  0.43461579     0.06220
H884        H  0.34855861  0.99237950  0.34535121     0.06060
O885        O  0.29545909  0.59293452  0.49165357    -0.75320
O886        O  0.33052777  0.55286639  0.48957749    -0.54230
C887        C  0.32992774  0.57641724  0.00049844     0.78410
O888        O  0.20006904  0.48557436  0.08726218    -0.59920
O889        O  0.16231086  0.48873113  0.04873550    -0.52950
C890        C  0.17106554  0.48751853  0.07812605     0.70420
O891        O  0.30597891  0.99151094  0.08510146    -0.74480
O892        O  0.33996186  0.99436934  0.04360584    -0.55040
C893        C  0.33557544  0.49318572  0.07247034     0.76420
O894        O  0.19628352  0.58478485  0.00058159    -0.59620
O895        O  0.16052007  0.54381065  0.99832023    -0.52740
C896        C  0.16769162  0.57403582  0.99884591     0.73020
Zr897      Zr  0.24883953  0.56002324  0.99887892     2.54710
O898        O  0.24850692  0.59518947  0.04435937    -0.80190
O899        O  0.23754625  0.60131616  0.45761639    -0.93610
Zr900      Zr  0.25200941  0.99182512  0.06216322     2.64680
O901        O  0.25256540  0.53147537  0.10152043    -0.98560
O902        O  0.25290202  0.94792062  0.09888259    -0.80620
O903        O  0.28076486  0.52579809  0.02938463    -0.83980
O904        O  0.22027249  0.52407128  0.03134020    -2.18690
O905        O  0.19849511  0.49826695  0.39886095    -0.67370
O906        O  0.16588796  0.49483059  0.44116940    -0.51940
C907        C  0.17022740  0.99655911  0.41062936     0.71400
O908        O  0.30529037  0.90584381  0.49239719    -0.60280
O909        O  0.33925522  0.94840329  0.49289017    -0.52250
C910        C  0.33301073  0.91839096  0.49495918     0.73200
O911        O  0.19656834  0.90235459  0.99145680    -0.71670
O912        O  0.16134938  0.94268255  0.99649496    -0.50350
C913        C  0.17425708  0.90779829  0.50020191     0.74590
O914        O  0.29730003  0.00486243  0.40039265    -0.67000
O915        O  0.33163970  0.99336996  0.43983753    -0.54200
C916        C  0.32520627  0.00158588  0.41122323     0.72970
Zr917      Zr  0.24725681  0.99623510  0.42693340     2.77540
O918        O  0.25061601  0.95168816  0.39066805    -0.97750
O919        O  0.24476456  0.54092489  0.39104854    -0.78570
Zr920      Zr  0.24886048  0.92768921  0.99328474     2.70070
O921        O  0.25072226  0.89249962  0.44457079    -0.79820
O922        O  0.24722566  0.88950403  0.03588654    -0.98900
Zr923      Zr  0.30871139  0.99714838  0.49218373     2.21500
Zr924      Zr  0.18895009  0.49195431  0.99667699     2.11130
O925        O  0.21842670  0.96017989  0.45951583    -2.47590
O926        O  0.28007908  0.96302504  0.45760293    -0.79610
O927        O  0.21693714  0.52772270  0.46370869    -0.71810
O928        O  0.28080440  0.96001838  0.02680059    -2.32770
O929        O  0.27660711  0.53132233  0.46211466    -2.28970
O930        O  0.21958249  0.96023413  0.02809695    -0.73570
H931        H  0.20680291  0.53600964  0.04515443     0.78430
H932        H  0.29477336  0.94702997  0.03896042     0.79520
H933        H  0.20466431  0.94700067  0.44674135     0.81740
H934        H  0.28899777  0.54535808  0.44910239     0.79350
H935        H  0.26807230  0.93284484  0.08978462     0.42380
H936        H  0.22864622  0.89540399  0.04859230     0.41350
H937        H  0.26987057  0.89843985  0.43257519     0.41030
H938        H  0.23035160  0.94005318  0.39303369     0.38970
H939        H  0.23220296  0.55706702  0.40214108     0.42100
H940        H  0.25494431  0.59839479  0.44243092     0.36880
H941        H  0.26416934  0.58617006  0.05895448     0.43000
H942        H  0.23218195  0.54226546  0.09874101     0.39410
H943        H  0.24939783  0.96129200  0.36954289     0.44330
H944        H  0.24232250  0.62183755  0.46799265     0.43060
H945        H  0.25039039  0.52021006  0.12174766     0.43190
H946        H  0.24108220  0.86924313  0.02569359     0.43550
O947        O  0.08664143  0.69151728  0.50269196    -0.75320
O948        O  0.04472610  0.65793328  0.49388127    -0.54230
C949        C  0.07829799  0.66532373  0.99989187     0.78410
O950        O  0.99476087  0.79906296  0.08799356    -0.59920
O951        O  0.99853742  0.83535877  0.04856692    -0.52950
C952        C  0.99878605  0.82755737  0.07800458     0.70420
O953        O  0.48970657  0.69487416  0.08537704    -0.74480
O954        O  0.49500635  0.65880241  0.04535847    -0.55040
C955        C  0.98810740  0.66724058  0.07642593     0.76420
O956        O  0.08982713  0.79765845  0.99699363    -0.59620
O957        O  0.05035915  0.83362049  0.00181558    -0.52740
C958        C  0.07947005  0.82608229  0.99707291     0.73020
Zr959      Zr  0.06373935  0.74592657  0.00285645     2.54710
O960        O  0.09446480  0.74953641  0.05116141    -0.80190
O961        O  0.10440238  0.73865375  0.45872114    -0.93610
Zr962      Zr  0.49410568  0.74743435  0.06169473     2.64680
O963        O  0.02614524  0.74028748  0.10513401    -0.98560
O964        O  0.44832687  0.75126498  0.09590437    -0.80620
O965        O  0.02574618  0.71609568  0.03175163    -0.83980
O966        O  0.02815193  0.77642207  0.03339737    -2.18690
O967        O  0.99670367  0.80303857  0.40522240    -0.67370
O968        O  0.00543949  0.83660443  0.44667432    -0.51940
C969        C  0.49974058  0.83057713  0.41775243     0.71400
O970        O  0.39874839  0.70586278  0.49263397    -0.60280
O971        O  0.43693003  0.66810980  0.49295527    -0.52250
C972        C  0.40743362  0.67713446  0.49443708     0.73200
O973        O  0.40784185  0.80253662  0.99747946    -0.71670
O974        O  0.44963006  0.83713457  0.00145763    -0.50350
C975        C  0.42224005  0.83437038  0.50081661     0.74590
O976        O  0.50132853  0.70156450  0.39911826    -0.67000
O977        O  0.49253211  0.66692908  0.43921885    -0.54200
C978        C  0.49762270  0.67349012  0.40948939     0.72970
Zr979      Zr  0.00011758  0.75042443  0.42878174     2.77540
O980        O  0.45948565  0.74735994  0.38922139    -0.97750
O981        O  0.04660293  0.75478488  0.39547996    -0.78570
Zr982      Zr  0.43069287  0.74929769  0.99177496     2.70070
O983        O  0.39785098  0.75700444  0.44507140    -0.79820
O984        O  0.38848521  0.74677183  0.03048257    -0.98900
Zr985      Zr  0.49292145  0.68757888  0.49445680     2.21500
Zr986      Zr  0.99883761  0.80764303  0.99768229     2.11130
O987        O  0.46752972  0.78255067  0.46116438    -2.47590
O988        O  0.46367093  0.72084437  0.46020566    -0.79610
O989        O  0.03412271  0.77734316  0.46471970    -0.71810
O990        O  0.46206137  0.71781981  0.02569020    -2.32770
O991        O  0.02964078  0.71705425  0.46321451    -2.28970
O992        O  0.46301454  0.77854730  0.02781837    -0.73570
H993        H  0.04047805  0.78954676  0.04757190     0.78430
H994        H  0.44832987  0.70411925  0.03771366     0.79520
H995        H  0.45582235  0.79731942  0.44864683     0.81740
H996        H  0.04214037  0.70290909  0.45061511     0.79350
H997        H  0.43378965  0.73425194  0.08856696     0.42380
H998        H  0.39414139  0.76311449  0.04634306     0.41350
H999        H  0.40240357  0.73752910  0.43299251     0.41030
H1000       H  0.44503311  0.76480497  0.39440239     0.38970
H1001       H  0.06096061  0.76959422  0.40680014     0.42100
H1002       H  0.09853905  0.71919330  0.44694857     0.36880
H1003       H  0.08671901  0.73162121  0.06401738     0.43000
H1004       H  0.04229854  0.75713833  0.10228754     0.39410
H1005       H  0.47004342  0.75413440  0.36959333     0.44330
H1006       H  0.12376535  0.73312385  0.47039876     0.43060
H1007       H  0.01424730  0.74681892  0.12403600     0.43190
H1008       H  0.36976118  0.75516918  0.01957020     0.43550
C1009       C  0.14192374  0.59677485  0.98900601     0.03100
C1010       C  0.12883427  0.58831878  0.95983098    -0.13050
C1011       C  0.09793794  0.59693642  0.95453961     0.00600
C1012       C  0.09373490  0.62879966  0.95949266    -0.11580
C1013       C  0.10147630  0.64013115  0.98935434     0.03090
C1014       C  0.12717197  0.62356772  0.00530420    -0.11000
H1015       H  0.13835330  0.56883632  0.94656075     0.08690
H1016       H  0.07754191  0.64152376  0.94497497     0.06220
H1017       H  0.13444564  0.63031337  0.02880672     0.06060
C1018       C  0.14772472  0.88573909  0.50912241     0.03100
C1019       C  0.12359491  0.90207711  0.52376301    -0.13050
C1020       C  0.09481663  0.90108230  0.50866940     0.00600
C1021       C  0.08846270  0.87799571  0.48654164    -0.11580
C1022       C  0.10597271  0.85063098  0.48811260     0.03090
C1023       C  0.13888521  0.85559700  0.49532278    -0.11000
H1024       H  0.12898016  0.92166450  0.53959063     0.08690
H1025       H  0.06637766  0.87848964  0.47357282     0.06220
H1026       H  0.15622807  0.83784144  0.49002577     0.06060
C1027       C  0.35212998  0.60555468  0.48951512     0.03100
C1028       C  0.37978607  0.58988090  0.49446244    -0.13050
C1029       C  0.40147993  0.60234794  0.51564627     0.00600
C1030       C  0.39945751  0.63271827  0.52611692    -0.11580
C1031       C  0.38413310  0.65252714  0.50551523     0.03090
C1032       C  0.35574627  0.63966476  0.49049387    -0.11000
H1033       H  0.38291226  0.56617450  0.48521405     0.08690
H1034       H  0.41774347  0.64172723  0.54187443     0.06220
H1035       H  0.33862241  0.65483427  0.47958416     0.06060
C1036       C  0.40103720  0.86016600  0.51199218     0.03100
C1037       C  0.41009175  0.87439513  0.54044775    -0.13050
C1038       C  0.39932302  0.90463158  0.54755165     0.00600
C1039       C  0.36943966  0.91205698  0.53754813    -0.11580
C1040       C  0.35837204  0.89923405  0.50916948     0.03090
C1041       C  0.37428368  0.87266939  0.49578290    -0.11000
H1042       H  0.43123375  0.86629191  0.55218372     0.08690
H1043       H  0.35893837  0.93336562  0.54694690     0.06220
H1044       H  0.36702104  0.86304466  0.47324609     0.06060
O1045       O  0.52774014  0.59715016  0.55573905    -0.86520
O1046       O  0.01716418  0.91878703  0.56022612    -0.86680
O1047       O  0.46692621  0.01720289  0.60979498    -0.88350
O1048       O  0.06345741  0.52594738  0.59396561    -0.87110
O1049       O  0.09863890  0.52250672  0.55341228    -0.86700
O1050       O  0.45218270  0.03904674  0.56658499    -0.88070
O1051       O  0.53439734  0.95683884  0.59628766    -0.86550
O1052       O  0.53027250  0.56011287  0.59486172    -0.86130
Zr1053     Zr  0.51364212  0.00846998  0.57775108     2.84310
O1054       O  0.03431528  0.97495638  0.54281776    -1.08110
O1055       O  0.48031665  0.53662748  0.54510192    -1.08840
C1056       C  0.53475457  0.58825547  0.58395985     1.06590
C1057       C  0.53404556  0.92767250  0.58615713     1.06530
C1058       C  0.44502093  0.02960980  0.59348038     1.09520
C1059       C  0.09088805  0.53036267  0.58197922     1.07290
H1060       H  0.46304975  0.96636796  0.57082194     0.32850
O1061       O  0.47376137  0.97700841  0.55383105    -1.29060
H1062       H  0.05568173  0.55277653  0.54417342     0.32530
O1063       O  0.03959399  0.53760414  0.53899256    -1.30740
O1064       O  0.97779854  0.91912806  0.96142891    -0.86510
O1065       O  0.49984146  0.58976917  0.95777375    -0.88010
O1066       O  0.41025153  0.95843563  0.03729648    -0.86590
O1067       O  0.08458421  0.95372025  0.51598508    -0.86640
O1068       O  0.08690463  0.54647643  0.47800162    -0.86350
O1069       O  0.41595656  0.55194795  0.02969634    -0.86160
O1070       O  0.45026864  0.02725347  0.93302405    -0.86530
O1071       O  0.03798260  0.49478032  0.92394183    -0.85990
O1072       O  0.41129484  0.01314719  0.96716977    -0.87050
O1073       O  0.08002396  0.49338986  0.95789720    -0.86210
O1074       O  0.44880514  0.92097241  0.03717294    -0.86610
O1075       O  0.45503894  0.59039058  0.02916974    -0.86330
O1076       O  0.05133927  0.58647875  0.48108661    -0.85980
O1077       O  0.04371203  0.91783437  0.50977641    -0.86390
O1078       O  0.97366781  0.95868764  0.92523844    -0.86690
O1079       O  0.00876824  0.54755473  0.92722634    -0.88020
Zr1080     Zr  0.00065781  0.94106379  0.00984101     2.83100
Zr1081     Zr  0.50631628  0.56878172  0.51072338     2.83500
Zr1082     Zr  0.43576895  0.00863690  0.02067873     2.84090
Zr1083     Zr  0.06642754  0.50263537  0.50891070     2.83360
Zr1084     Zr  0.99376188  0.50437374  0.95627682     2.84220
O1085       O  0.02873163  0.53572696  0.98196981    -1.08600
O1086       O  0.46010348  0.97432182  0.98688486    -1.08100
C1087       C  0.97030172  0.92986067  0.93393886     1.06560
C1088       C  0.00298400  0.57635688  0.93220187     1.09180
C1089       C  0.42031793  0.92973606  0.04117555     1.06740
C1090       C  0.07294164  0.92581129  0.51235038     1.07100
C1091       C  0.07707101  0.57429064  0.47066182     1.06680
C1092       C  0.42618747  0.58021484  0.03443060     1.06230
C1093       C  0.42189699  0.02119503  0.93956106     1.06660
C1094       C  0.06729069  0.49291448  0.93061857     1.06170
H1095       H  0.45395321  0.55563769  0.97602333     0.32850
O1096       O  0.46802147  0.53951782  0.98341951    -1.29690
H1097       H  0.03474949  0.95942453  0.95691046     0.32870
O1098       O  0.02773944  0.97172701  0.97454035    -1.31080
C1099       C  0.00235988  0.60301508  0.64206403     0.03100
C1100       C  0.03507801  0.60381511  0.63728226    -0.13050
C1101       C  0.04450663  0.61254179  0.60735029     0.00600
C1102       C  0.03347079  0.64171063  0.59869576    -0.11580
C1103       C  0.00069429  0.64526753  0.60067033     0.03090
C1104       C  0.98390166  0.62478724  0.62294161    -0.11000
H1105       H  0.04992012  0.58789320  0.65033726     0.08690
H1106       H  0.04697354  0.65506403  0.58150920     0.06220
H1107       H  0.95846193  0.62518164  0.62466198     0.06060
O1108       O  0.48886615  0.58709593  0.69317305    -0.75320
O1109       O  0.49539353  0.54756664  0.65701615    -0.54230
C1110       C  0.99231554  0.57772605  0.66525752     0.78410
O1111       O  0.09207898  0.49196070  0.79509305    -0.59920
O1112       O  0.05102606  0.49577406  0.82901993    -0.52950
C1113       C  0.08084062  0.49196578  0.82308922     0.70420
O1114       O  0.08879983  0.99182651  0.69210101    -0.74480
O1115       O  0.04895507  0.99563186  0.65607250    -0.55040
C1116       C  0.07939724  0.49355781  0.66553698     0.76420
O1117       O  0.99266241  0.59225130  0.79451524    -0.59620
O1118       O  0.99593601  0.55141189  0.82867875    -0.52740
C1119       C  0.99327649  0.58140182  0.82263168     0.72980
Zr1120     Zr  0.49455980  0.56181915  0.74405660     2.54710
O1121       O  0.03757966  0.60079707  0.74121293    -0.80190
O1122       O  0.44977626  0.59726970  0.74617519    -0.93610
Zr1123     Zr  0.06381831  0.99738195  0.74304537     2.64680
O1124       O  0.09744587  0.54369564  0.74350750    -0.98560
O1125       O  0.10467493  0.95758495  0.74083161    -0.80620
O1126       O  0.02853716  0.52910660  0.71456043    -0.83980
O1127       O  0.03058942  0.53187341  0.77460924    -2.18690
O1128       O  0.40544272  0.49202500  0.80038706    -0.67370
O1129       O  0.44878781  0.49541276  0.83178739    -0.51940
C1130       C  0.41719903  0.99645848  0.82844272     0.71400
O1131       O  0.49936470  0.90275584  0.69801878    -0.60280
O1132       O  0.49585197  0.94140708  0.66045350    -0.52250
C1133       C  0.49970174  0.91234948  0.66937549     0.73200
O1134       O  0.99485067  0.90648487  0.80226274    -0.71670
O1135       O  0.99994247  0.94888586  0.83554536    -0.50350
C1136       C  0.49340093  0.92024769  0.83165406     0.74590
O1137       O  0.40098961  0.99194121  0.69873924    -0.67000
O1138       O  0.44084867  0.98974548  0.66246809    -0.54200
C1139       C  0.41108786  0.99192627  0.67040580     0.72970
Zr1140     Zr  0.43025735  0.49156716  0.74785924     2.77540
O1141       O  0.39417090  0.94710806  0.74873016    -0.97750
O1142       O  0.39142996  0.53339948  0.74900373    -0.78570
Zr1143     Zr  0.99811625  0.92851903  0.74798987     2.70070
O1144       O  0.45553040  0.88849657  0.74781835    -0.79820
O1145       O  0.04242969  0.89270535  0.75131809    -0.98900
Zr1146     Zr  0.49548464  0.99442254  0.68474860     2.21500
Zr1147     Zr  0.99830115  0.49815049  0.80535114     2.11130
O1148       O  0.46384451  0.96244394  0.77876184    -2.47590
O1149       O  0.46348864  0.96095072  0.71777912    -0.79610
O1150       O  0.46361877  0.52761836  0.77588444    -0.71810
O1151       O  0.02944933  0.96241854  0.71509156    -2.32770
O1152       O  0.46173624  0.52567640  0.71524125    -2.28970
O1153       O  0.03259081  0.96365758  0.77533134    -0.73570
H1154       H  0.04346532  0.54551201  0.78781519     0.78430
H1155       H  0.04230047  0.94942480  0.70165677     0.79520
H1156       H  0.45145174  0.95006295  0.79331494     0.81740
H1157       H  0.44792456  0.53765923  0.70191651     0.79350
H1158       H  0.09315159  0.93751474  0.73653655     0.42380
H1159       H  0.05379109  0.89918591  0.77071475     0.41350
H1160       H  0.43955603  0.89689929  0.73318800     0.41030
H1161       H  0.39951312  0.93570033  0.76823653     0.38970
H1162       H  0.40026807  0.54933873  0.76382563     0.42100
H1163       H  0.43591361  0.59062974  0.72851676     0.36880
H1164       H  0.05040361  0.59347954  0.72322658     0.43000
H1165       H  0.09863687  0.55123628  0.76555319     0.39410
H1166       H  0.37298098  0.95579074  0.75275300     0.44330
H1167       H  0.45838275  0.61815607  0.73987538     0.43060
H1168       H  0.11870102  0.53534666  0.73912532     0.43190
H1169       H  0.03273649  0.87195960  0.75646024     0.43550
C1170       C  0.39095324  0.50472865  0.64575022     0.03100
C1171       C  0.40549477  0.53197123  0.63489048    -0.13050
C1172       C  0.41035390  0.53228312  0.60334354     0.00600
C1173       C  0.38627623  0.52085256  0.58350936    -0.11580
C1174       C  0.36108017  0.50285654  0.59554946     0.03090
C1175       C  0.36568229  0.49105289  0.62703809    -0.11000
H1176       H  0.42302412  0.54414119  0.64943678     0.08690
H1177       H  0.38842182  0.52301375  0.55853233     0.06220
H1178       H  0.35155899  0.47152596  0.63576186     0.06060
C1179       C  0.01759341  0.85519509  0.59927329     0.03100
C1180       C  0.04405941  0.87306762  0.58947398    -0.13050
C1181       C  0.04833091  0.90340092  0.60220439     0.00600
C1182       C  0.04317575  0.90573467  0.63381201    -0.11580
C1183       C  0.01500937  0.89207005  0.64444373     0.03090
C1184       C  0.00165225  0.86574185  0.62719906    -0.11000
H1185       H  0.05461883  0.86811710  0.56679894     0.08690
H1186       H  0.05296788  0.92639612  0.64578468     0.06220
H1187       H  0.97931049  0.85526127  0.63408106     0.06060
C1188       C  0.14823579  0.49902956  0.60164923     0.03100
C1189       C  0.14411768  0.53146590  0.59718984    -0.13050
C1190       C  0.11486709  0.54241352  0.60463351     0.00600
C1191       C  0.10596976  0.53509703  0.63528378    -0.11580
C1192       C  0.10507855  0.50266196  0.64209145     0.03090
C1193       C  0.12745443  0.48328620  0.62445538    -0.11000
H1194       H  0.15738524  0.54411819  0.57932145     0.08690
H1195       H  0.08973506  0.55066152  0.64713758     0.06220
H1196       H  0.12798680  0.45794362  0.62750781     0.06060
C1197       C  0.48427126  0.90175060  0.86071005     0.03100
C1198       C  0.49447326  0.87090434  0.87016082    -0.13050
C1199       C  0.48511637  0.85915574  0.90053208     0.00600
C1200       C  0.46548883  0.87754247  0.91933973    -0.11580
C1201       C  0.46266521  0.90897399  0.91325417     0.03090
C1202       C  0.46674787  0.91931605  0.88252687    -0.11000
H1203       H  0.51020164  0.85746500  0.85539469     0.08690
H1204       H  0.45799454  0.86943166  0.94234966     0.06220
H1205       H  0.46018667  0.94335537  0.87714728     0.06060
C1206       C  0.10100622  0.48629690  0.85193973     0.03100
C1207       C  0.08238340  0.47800625  0.87761110    -0.13050
C1208       C  0.08888394  0.49277541  0.90558968     0.00600
C1209       C  0.11642412  0.50951447  0.90984104    -0.11580
C1210       C  0.14166974  0.50138971  0.89167903     0.03090
C1211       C  0.13394814  0.49376407  0.85912991    -0.11000
H1212       H  0.05983040  0.46583627  0.87476292     0.08690
H1213       H  0.11994619  0.52265757  0.93144980     0.06220
H1214       H  0.15181985  0.49391795  0.84102598     0.06060
C1215       C  0.99160447  0.60265119  0.85145984     0.03100
C1216       C  0.98759172  0.58531605  0.87879570    -0.13050
C1217       C  0.00398127  0.59477503  0.90512708     0.00600
C1218       C  0.02109556  0.62199563  0.90555616    -0.11580
C1219       C  0.00938849  0.64586230  0.88741878     0.03090
C1220       C  0.99795275  0.63625601  0.85642924    -0.11000
H1221       H  0.97555048  0.56249203  0.87876575     0.08690
H1222       H  0.03432636  0.62713570  0.92657815     0.06220
H1223       H  0.99413883  0.65330698  0.83801995     0.06060
C1224       C  0.39783100  0.00056984  0.85814135     0.03100
C1225       C  0.41592006  0.00686634  0.88487599    -0.13050
C1226       C  0.40287691  0.02012120  0.91172609     0.00600
C1227       C  0.37222924  0.02870073  0.91184382    -0.11580
C1228       C  0.35215678  0.01100532  0.89257256     0.03090
C1229       C  0.36423841  0.99906960  0.86309947    -0.11000
H1230       H  0.44078850  0.00139072  0.88517787     0.08690
H1231       H  0.36343564  0.04083079  0.93259799     0.06220
H1232       H  0.34875138  0.98801505  0.84591780     0.06060
O1233       O  0.30120410  0.58604587  0.00060970    -0.75320
O1234       O  0.33783863  0.54693766  0.99715877    -0.54230
C1235       C  0.32382021  0.58292000  0.48919108     0.78410
O1236       O  0.19978330  0.48460650  0.58652593    -0.59920
O1237       O  0.16191866  0.48826248  0.54819130    -0.52950
C1238       C  0.17082327  0.48661521  0.57755391     0.70420
O1239       O  0.30560945  0.99208298  0.58368881    -0.74480
O1240       O  0.33926607  0.99820550  0.54226806    -0.55040
C1241       C  0.33340275  0.49685388  0.57318597     0.76420
O1242       O  0.19368005  0.58524832  0.50231117    -0.59620
O1243       O  0.15919284  0.54340043  0.49722840    -0.52740
C1244       C  0.16560819  0.57379141  0.49901000     0.73020
Zr1245     Zr  0.24623981  0.56189849  0.49810945     2.54710
O1246       O  0.24987014  0.59593900  0.54434222    -0.80190
O1247       O  0.24760120  0.60056837  0.95852964    -0.93610
Zr1248     Zr  0.25151439  0.99133513  0.56045701     2.64680
O1249       O  0.25028909  0.53319241  0.60053416    -0.98560
O1250       O  0.25370567  0.94771206  0.59743455    -0.80620
O1251       O  0.27917295  0.52869323  0.52910167    -0.83980
O1252       O  0.21852105  0.52494931  0.53040990    -2.18690
O1253       O  0.19837627  0.49786720  0.89999037    -0.67370
O1254       O  0.16588327  0.49478208  0.94239939    -0.51940
C1255       C  0.17093198  0.99895253  0.91084812     0.71400
O1256       O  0.30109240  0.90336146  0.99615116    -0.60280
O1257       O  0.33703527  0.94410510  0.99243819    -0.52250
C1258       C  0.32950521  0.91454746  0.99636887     0.73200
O1259       O  0.20244438  0.89768642  0.49723357    -0.71670
O1260       O  0.16664235  0.93748056  0.49802903    -0.50350
C1261       C  0.16838321  0.91316543  0.99244073     0.74590
O1262       O  0.29695007  0.00174591  0.90097701    -0.67000
O1263       O  0.33209198  0.99329788  0.94060670    -0.54200
C1264       C  0.32502295  0.99958584  0.91155740     0.72970
Zr1265     Zr  0.24769119  0.99598756  0.92908326     2.77540
O1266       O  0.24977057  0.95078913  0.89346380    -0.97750
O1267       O  0.24704582  0.54081899  0.89313574    -0.78570
Zr1268     Zr  0.25179968  0.92723256  0.49036141     2.70070
O1269       O  0.25019751  0.89006495  0.94984390    -0.79820
O1270       O  0.25798908  0.88674692  0.53034659    -0.98900
Zr1271     Zr  0.30988699  0.99500677  0.99372593     2.21500
Zr1272     Zr  0.18829404  0.49175641  0.49579650     2.11130
O1273       O  0.21734555  0.96181791  0.96197154    -2.47590
O1274       O  0.27900232  0.96177377  0.96009554    -0.79610
O1275       O  0.21829860  0.52717444  0.96439506    -0.71810
O1276       O  0.28127937  0.96081049  0.52479092    -2.32770
O1277       O  0.27868847  0.52916848  0.96260704    -2.28970
O1278       O  0.22147685  0.95848746  0.52567062    -0.73570
H1279       H  0.20468642  0.53642236  0.54424372     0.78430
H1280       H  0.29580041  0.94839653  0.53690763     0.79520
H1281       H  0.20331384  0.94924367  0.94890713     0.81740
H1282       H  0.29195627  0.54303751  0.95025008     0.79350
H1283       H  0.26870557  0.93267845  0.58798228     0.42380
H1284       H  0.24139882  0.89106327  0.54609075     0.41350
H1285       H  0.26706160  0.89818660  0.93586941     0.41030
H1286       H  0.22967071  0.93911513  0.89679041     0.38970
H1287       H  0.23533625  0.55717736  0.90484482     0.42100
H1288       H  0.26686960  0.59724124  0.94589721     0.36880
H1289       H  0.26851482  0.58834605  0.55597336     0.43000
H1290       H  0.22968502  0.54350485  0.59756605     0.39410
H1291       H  0.24773016  0.95996505  0.87221423     0.44330
H1292       H  0.25171050  0.62061624  0.97003167     0.43060
H1293       H  0.24819972  0.52191439  0.62076485     0.43190
H1294       H  0.25131430  0.86668942  0.52007292     0.43550
O1295       O  0.08885235  0.69356603  0.00505482    -0.75320
O1296       O  0.04823087  0.65852096  0.99629892    -0.54230
C1297       C  0.07514150  0.66374514  0.49732650     0.78410
O1298       O  0.00062078  0.80173342  0.58691179    -0.59920
O1299       O  0.00703237  0.83726927  0.54707664    -0.52950
C1300       C  0.00649376  0.82989288  0.57664484     0.70420
O1301       O  0.48660292  0.69692556  0.58613944    -0.74480
O1302       O  0.49091483  0.65996952  0.54675859    -0.55040
C1303       C  0.98907404  0.66822157  0.57637457     0.76420
O1304       O  0.09545339  0.79349105  0.49295985    -0.59620
O1305       O  0.05518474  0.82800887  0.49250898    -0.52740
C1306       C  0.08493588  0.82170509  0.49088539     0.73020
Zr1307     Zr  0.06398491  0.74451008  0.49893504     2.54710
O1308       O  0.09693540  0.74735451  0.54582026    -0.80190
O1309       O  0.10812895  0.74379115  0.96661412    -0.93610
Zr1310     Zr  0.49342347  0.74906600  0.56204550     2.64680
O1311       O  0.03231116  0.74254481  0.60317905    -0.98560
O1312       O  0.44798989  0.75457831  0.59646987    -0.80620
O1313       O  0.02611130  0.71638127  0.52982389    -0.83980
O1314       O  0.03133514  0.77689187  0.53106515    -2.18690
O1315       O  0.99980834  0.80325696  0.90565151    -0.67370
O1316       O  0.00214049  0.83663408  0.94795853    -0.51940
C1317       C  0.49683830  0.83123923  0.91810578     0.71400
O1318       O  0.40519965  0.69676247  0.99305185    -0.60280
O1319       O  0.44434934  0.65998159  0.98982934    -0.52250
C1320       C  0.41510029  0.66810250  0.99313136     0.73200
O1321       O  0.40971130  0.80706367  0.49536525    -0.71670
O1322       O  0.45251971  0.84000984  0.50156326    -0.50350
C1323       C  0.41956039  0.83053584  0.00188351     0.74590
O1324       O  0.50117127  0.70268168  0.89706120    -0.67000
O1325       O  0.49553835  0.66782541  0.93736591    -0.54200
C1326       C  0.49906878  0.67449306  0.90743853     0.72970
Zr1327     Zr  0.00381963  0.75041702  0.92908324     2.77540
O1328       O  0.45837709  0.74778740  0.88909060    -0.97750
O1329       O  0.05188419  0.75562621  0.89821547    -0.78570
Zr1330     Zr  0.43083886  0.75364094  0.49179322     2.70070
O1331       O  0.39636989  0.75139792  0.94592879    -0.79820
O1332       O  0.38997398  0.75414724  0.53197160    -0.98900
Zr1333     Zr  0.49596876  0.68685846  0.99321265     2.21500
Zr1334     Zr  0.00114599  0.80887698  0.49672967     2.11130
O1335       O  0.46595728  0.78044087  0.96122992    -2.47590
O1336       O  0.46497320  0.71907149  0.95943761    -0.79610
O1337       O  0.03492036  0.77816288  0.96706275    -0.71810
O1338       O  0.46037106  0.72071834  0.52611990    -2.32770
O1339       O  0.03302371  0.71768821  0.96468386    -2.28970
O1340       O  0.46395232  0.78155338  0.52795590    -0.73570
H1341       H  0.04492600  0.78965248  0.54440251     0.78430
H1342       H  0.44586712  0.70797256  0.53828498     0.79520
H1343       H  0.45364598  0.79496183  0.94899823     0.81740
H1344       H  0.04683954  0.70431224  0.95263849     0.79350
H1345       H  0.43262089  0.73841447  0.58892111     0.42380
H1346       H  0.39660603  0.77103951  0.54687113     0.41350
H1347       H  0.40178555  0.73242462  0.93343755     0.41030
H1348       H  0.44349357  0.76457211  0.89515655     0.38970
H1349       H  0.06508654  0.77118651  0.90992690     0.42100
H1350       H  0.10381211  0.72526410  0.95287252     0.36880
H1351       H  0.08838077  0.73060014  0.55967598     0.43000
H1352       H  0.04817405  0.75950765  0.59953281     0.39410
H1353       H  0.46832163  0.75555708  0.86950994     0.44330
H1354       H  0.12639571  0.73764778  0.97964762     0.43060
H1355       H  0.02138068  0.74897981  0.62269145     0.43190
H1356       H  0.37110891  0.76256932  0.52131866     0.43550
C1357       C  0.14024028  0.59625792  0.48818239     0.03100
C1358       C  0.12936399  0.58825436  0.45802746    -0.13050
C1359       C  0.09830556  0.59511482  0.45190959     0.00600
C1360       C  0.09220882  0.62678714  0.45702903    -0.11580
C1361       C  0.09825322  0.63817212  0.48734719     0.03090
C1362       C  0.12388778  0.62230631  0.50413950    -0.11000
H1363       H  0.14032405  0.56947400  0.44478696     0.08690
H1364       H  0.07653251  0.63906226  0.44159074     0.06220
H1365       H  0.12997161  0.62900172  0.52798374     0.06060
C1366       C  0.14169039  0.89274068  0.98166055     0.03100
C1367       C  0.12351547  0.90753739  0.95874545    -0.13050
C1368       C  0.09174069  0.90108942  0.95913250     0.00600
C1369       C  0.08335213  0.86986344  0.96188187    -0.11580
C1370       C  0.09942765  0.85216000  0.98435310     0.03090
C1371       C  0.12951313  0.86400597  0.99537123    -0.11000
H1372       H  0.13107613  0.93009241  0.94905716     0.08690
H1373       H  0.05980562  0.86298094  0.95427546     0.06220
H1374       H  0.14170215  0.85268945  0.01453189     0.06060
C1375       C  0.35543618  0.59937788  0.01085192     0.03100
C1376       C  0.37064926  0.59096679  0.03876037    -0.13050
C1377       C  0.40133858  0.60229423  0.04390425     0.00600
C1378       C  0.40725412  0.63300580  0.03574006    -0.11580
C1379       C  0.39446697  0.64345571  0.00743204     0.03090
C1380       C  0.36793865  0.62631125  0.99409489    -0.11000
H1381       H  0.36328393  0.56941474  0.05055092     0.08690
H1382       H  0.42847519  0.64417912  0.04520882     0.06220
H1383       H  0.35844500  0.63273943  0.97142938     0.06060
C1384       C  0.39820212  0.85659021  0.01292154     0.03100
C1385       C  0.40927332  0.87330545  0.03936210    -0.13050
C1386       C  0.39778867  0.90344721  0.04595817     0.00600
C1387       C  0.36723348  0.90957162  0.03754605    -0.11580
C1388       C  0.35482821  0.89517772  0.01051045     0.03090
C1389       C  0.37031447  0.86798431  0.99763417    -0.11000
H1390       H  0.43145051  0.86652114  0.04999577     0.08690
H1391       H  0.35685514  0.93110022  0.04657487     0.06220
H1392       H  0.36196653  0.85717995  0.97600274     0.06060
O1393       O  0.02968243  0.09406669  0.05530350    -0.86520
O1394       O  0.52636794  0.41609458  0.05252021    -0.86680
O1395       O  0.96601519  0.51859291  0.11108513    -0.88350
O1396       O  0.56126270  0.02622494  0.09362372    -0.87110
O1397       O  0.59589229  0.02369845  0.05267687    -0.86700
O1398       O  0.95211115  0.53750014  0.06652578    -0.88070
O1399       O  0.03154905  0.45733415  0.09522412    -0.86550
O1400       O  0.03317313  0.05562469  0.09297832    -0.86130
Zr1401     Zr  0.01094626  0.50939063  0.07745818     2.84310
O1402       O  0.54045183  0.46994648  0.03603998    -1.08110
O1403       O  0.98311115  0.03229654  0.04078511    -1.08840
C1404       C  0.03709615  0.08427743  0.08304542     1.06590
C1405       C  0.03109095  0.42824838  0.08484065     1.06530
C1406       C  0.94425173  0.52967795  0.09384681     1.09520
C1407       C  0.58856964  0.03087294  0.08143638     1.07290
H1408       H  0.95965087  0.46765483  0.06987630     0.32850
O1409       O  0.97042230  0.47859308  0.05310532    -1.29060
H1410       H  0.55270512  0.05445460  0.04421619     0.32530
O1411       O  0.53583113  0.04016407  0.03906037    -1.30740
O1412       O  0.47963648  0.41771160  0.46740163    -0.86510
O1413       O  0.99510498  0.08915417  0.45817696    -0.88010
O1414       O  0.91372139  0.45767723  0.53972407    -0.86590
O1415       O  0.58637149  0.44977260  0.98534271    -0.86640
O1416       O  0.58392345  0.04924192  0.97989182    -0.86350
O1417       O  0.91137181  0.05643098  0.52895874    -0.86160
O1418       O  0.95289384  0.51942031  0.43256073    -0.86530
O1419       O  0.54014913  0.99114875  0.42399916    -0.85990
O1420       O  0.91445524  0.50878404  0.46873975    -0.87050
O1421       O  0.58260682  0.99042616  0.45756011    -0.86210
O1422       O  0.95124638  0.41916177  0.53809289    -0.86610
O1423       O  0.95109594  0.09416084  0.52947736    -0.86330
O1424       O  0.54888890  0.08990529  0.98293051    -0.85980
O1425       O  0.54481116  0.41438713  0.98437972    -0.86390
O1426       O  0.47543850  0.45672174  0.43102143    -0.86690
O1427       O  0.51068756  0.04511959  0.42650529    -0.88020
Zr1428     Zr  0.49799268  0.44273372  0.51755074     2.83100
Zr1429     Zr  0.00622613  0.06903619  0.00991728     2.83500
Zr1430     Zr  0.94059556  0.50596154  0.52148478     2.84090
Zr1431     Zr  0.56239866  0.00529293  0.00884996     2.83360
Zr1432     Zr  0.49677757  0.00184302  0.45651462     2.84220
O1433       O  0.53233403  0.03327130  0.48118350    -1.08600
O1434       O  0.96431045  0.47146350  0.48767310    -1.08100
C1435       C  0.47241622  0.42815150  0.43953128     1.06560
C1436       C  0.50618188  0.07418029  0.43179130     1.09180
C1437       C  0.92301749  0.42866322  0.54274680     1.06740
C1438       C  0.57323937  0.42312284  0.97725248     1.07100
C1439       C  0.57486621  0.07732938  0.97300612     1.06680
C1440       C  0.92199504  0.08451428  0.53404683     1.06230
C1441       C  0.92453408  0.51484504  0.44044036     1.06660
C1442       C  0.56947644  0.98960624  0.43041185     1.06170
H1443       H  0.95145652  0.05482926  0.47638401     0.32850
O1444       O  0.96518773  0.03967590  0.48604622    -1.29690
H1445       H  0.53958728  0.45313227  0.46871564     0.32870
O1446       O  0.53042488  0.46855488  0.48264724    -1.31080
C1447       C  0.50192460  0.10317394  0.14315088     0.03100
C1448       C  0.53463627  0.10395514  0.13821534    -0.13050
C1449       C  0.54394471  0.11295210  0.10831236     0.00600
C1450       C  0.53300939  0.14234000  0.10035131    -0.11580
C1451       C  0.50013315  0.14539430  0.10181675     0.03090
C1452       C  0.48335881  0.12479683  0.12398186    -0.11000
H1453       H  0.54958605  0.08816029  0.15125727     0.08690
H1454       H  0.54661970  0.15606079  0.08353756     0.06220
H1455       H  0.45789035  0.12481462  0.12540119     0.06060
O1456       O  0.99046299  0.08709836  0.19259327    -0.75320
O1457       O  0.99440292  0.04669655  0.15698204    -0.54230
C1458       C  0.49192470  0.07782484  0.16620813     0.78410
O1459       O  0.59203018  0.99159440  0.29468186    -0.59920
O1460       O  0.55132526  0.99484218  0.32917059    -0.52950
C1461       C  0.58110948  0.99123252  0.32278284     0.70420
O1462       O  0.58811486  0.49286553  0.19256310    -0.74480
O1463       O  0.54727596  0.49515372  0.15747578    -0.55040
C1464       C  0.57889821  0.99388267  0.16543822     0.76420
O1465       O  0.49128189  0.09192077  0.29494761    -0.59620
O1466       O  0.49536591  0.05064029  0.32830463    -0.52740
C1467       C  0.49214663  0.08063753  0.32283894     0.72980
Zr1468     Zr  0.99473401  0.06276983  0.24416537     2.54710
O1469       O  0.53742793  0.10025015  0.24218298    -0.80190
O1470       O  0.95119012  0.09976411  0.24509146    -0.93610
Zr1471     Zr  0.56289361  0.49632978  0.24408189     2.64680
O1472       O  0.59706088  0.04350399  0.24351617    -0.98560
O1473       O  0.60286337  0.45566569  0.24126660    -0.80620
O1474       O  0.52809466  0.02902581  0.21486195    -0.83980
O1475       O  0.53040067  0.03142444  0.27492701    -2.18690
O1476       O  0.90425115  0.99441247  0.30104047    -0.67370
O1477       O  0.94745165  0.99765567  0.33268003    -0.51940
C1478       C  0.91735769  0.49560038  0.32899345     0.71400
O1479       O  0.99914388  0.40198750  0.19798054    -0.60280
O1480       O  0.99508826  0.44090041  0.16075068    -0.52250
C1481       C  0.99913770  0.41176712  0.16939261     0.73200
O1482       O  0.49265328  0.40689842  0.30377546    -0.71670
O1483       O  0.49713005  0.44969176  0.33655094    -0.50350
C1484       C  0.99360412  0.41924884  0.33191672     0.74590
O1485       O  0.90080389  0.49182431  0.19931226    -0.67000
O1486       O  0.94048693  0.48971366  0.16284664    -0.54200
C1487       C  0.91082998  0.49198781  0.17096017     0.72970
Zr1488     Zr  0.92872805  0.99391200  0.24844307     2.77540
O1489       O  0.89398427  0.44627371  0.24918498    -0.97750
O1490       O  0.89012386  0.03587837  0.25121407    -0.78570
Zr1491     Zr  0.49576173  0.42840904  0.24906100     2.70070
O1492       O  0.95530369  0.38774783  0.24800783    -0.79820
O1493       O  0.53946583  0.39183770  0.25216509    -0.98900
Zr1494     Zr  0.99496929  0.49394273  0.18511817     2.21500
Zr1495     Zr  0.49835911  0.99739329  0.30561507     2.11130
O1496       O  0.96375268  0.46144320  0.27904033    -2.47590
O1497       O  0.96317172  0.46023370  0.21809648    -0.79610
O1498       O  0.96265456  0.02966990  0.27614530    -0.71810
O1499       O  0.52798870  0.46158105  0.21623384    -2.32770
O1500       O  0.96104050  0.02715701  0.21576501    -2.28970
O1501       O  0.53076575  0.46327282  0.27628799    -0.73570
H1502       H  0.54332080  0.04499801  0.28815707     0.78430
H1503       H  0.54058008  0.44840597  0.20271277     0.79520
H1504       H  0.95142223  0.44901798  0.29361011     0.81740
H1505       H  0.94764488  0.03932832  0.20217848     0.79350
H1506       H  0.59099782  0.43601357  0.23605426     0.42380
H1507       H  0.55134394  0.39848895  0.27119826     0.41350
H1508       H  0.93931403  0.39616672  0.23340372     0.41030
H1509       H  0.89920617  0.43494218  0.26876883     0.38970
H1510       H  0.90052434  0.05272909  0.26390076     0.42100
H1511       H  0.93726088  0.09318656  0.22746266     0.36880
H1512       H  0.54978254  0.09346619  0.22366497     0.43000
H1513       H  0.59830917  0.05094991  0.26559038     0.39410
H1514       H  0.87276836  0.45496699  0.25304490     0.44330
H1515       H  0.96055638  0.12019687  0.23839187     0.43060
H1516       H  0.61831486  0.03520615  0.23903121     0.43190
H1517       H  0.52951452  0.37137865  0.25790906     0.43550
C1518       C  0.89162171  0.00686734  0.14470717     0.03100
C1519       C  0.90960675  0.02970285  0.12980173    -0.13050
C1520       C  0.91661009  0.02252486  0.09936254     0.00600
C1521       C  0.89265811  0.00933005  0.08027631    -0.11580
C1522       C  0.86417428  0.99847095  0.09391864     0.03090
C1523       C  0.86576974  0.99281309  0.12729038    -0.11000
H1524       H  0.92719769  0.04310286  0.14319027     0.08690
H1525       H  0.89636665  0.00649802  0.05544504     0.06220
H1526       H  0.84863819  0.97760724  0.13871749     0.06060
C1527       C  0.51012133  0.35263865  0.10012822     0.03100
C1528       C  0.53756599  0.36812870  0.08958127    -0.13050
C1529       C  0.54441438  0.39821572  0.10112388     0.00600
C1530       C  0.53856558  0.40310067  0.13249510    -0.11580
C1531       C  0.51015766  0.39098525  0.14425397     0.03090
C1532       C  0.49517367  0.36488074  0.12793707    -0.11000
H1533       H  0.54789859  0.36134606  0.06725588     0.08690
H1534       H  0.54935209  0.42384841  0.14346245     0.06220
H1535       H  0.47252739  0.35567161  0.13553340     0.06060
C1536       C  0.64783451  0.00037484  0.10159289     0.03100
C1537       C  0.64220944  0.03236888  0.09595941    -0.13050
C1538       C  0.61281193  0.04275348  0.10381354     0.00600
C1539       C  0.60427841  0.03558945  0.13455157    -0.11580
C1540       C  0.60435234  0.00332874  0.14182090     0.03090
C1541       C  0.62757751  0.98446471  0.12475266    -0.11000
H1542       H  0.65473390  0.04484238  0.07744620     0.08690
H1543       H  0.58753571  0.05073902  0.14618474     0.06220
H1544       H  0.62913194  0.95927621  0.12849495     0.06060
C1545       C  0.98505637  0.40032868  0.36087344     0.03100
C1546       C  0.99631257  0.36982079  0.36993355    -0.13050
C1547       C  0.98743282  0.35754312  0.40017898     0.00600
C1548       C  0.96712465  0.37484063  0.41924456    -0.11580
C1549       C  0.96399542  0.40628491  0.41391400     0.03090
C1550       C  0.96730998  0.41711082  0.38314641    -0.11000
H1551       H  0.01248383  0.35708938  0.35502048     0.08690
H1552       H  0.96006333  0.36616943  0.44218245     0.06220
H1553       H  0.96030404  0.44104311  0.37814826     0.06060
C1554       C  0.60181868  0.98517884  0.35111998     0.03100
C1555       C  0.58387724  0.97582711  0.37689563    -0.13050
C1556       C  0.59049274  0.99033171  0.40505328     0.00600
C1557       C  0.61693561  0.00890333  0.40866003    -0.11580
C1558       C  0.64229681  0.00145375  0.39050981     0.03090
C1559       C  0.63460568  0.99360150  0.35802102    -0.11000
H1560       H  0.56161296  0.96311025  0.37411556     0.08690
H1561       H  0.62013835  0.02250230  0.43007501     0.06220
H1562       H  0.65232212  0.99435847  0.33977700     0.06060
C1563       C  0.49063305  0.10122888  0.35207285     0.03100
C1564       C  0.48930812  0.08309762  0.37908278    -0.13050
C1565       C  0.50598298  0.09308703  0.40493913     0.00600
C1566       C  0.51906098  0.12244702  0.40640536    -0.11580
C1567       C  0.50500486  0.14520822  0.38843330     0.03090
C1568       C  0.49415244  0.13509398  0.35744276    -0.11000
H1569       H  0.47871674  0.05957612  0.37912716     0.08690
H1570       H  0.53147416  0.12880448  0.42766731     0.06220
H1571       H  0.48844203  0.15197622  0.33938619     0.06060
C1572       C  0.89797925  0.49844291  0.35874750     0.03100
C1573       C  0.91593068  0.49991548  0.38615242    -0.13050
C1574       C  0.90447229  0.51407121  0.41331115     0.00600
C1575       C  0.87530988  0.52697393  0.41320721    -0.11580
C1576       C  0.85344320  0.51280103  0.39295983     0.03090
C1577       C  0.86448147  0.50107755  0.36305941    -0.11000
H1578       H  0.93986348  0.49136454  0.38621397     0.08690
H1579       H  0.86777123  0.53961438  0.43413056     0.06220
H1580       H  0.84812343  0.49340512  0.34493133     0.06060
O1581       O  0.79968709  0.08790253  0.49874258    -0.75320
O1582       O  0.83727308  0.04968544  0.49580973    -0.54230
C1583       C  0.82991366  0.07692240  0.00008196     0.78410
O1584       O  0.70021897  0.98639416  0.08720134    -0.59920
O1585       O  0.66245436  0.98905889  0.04864584    -0.52950
C1586       C  0.67119743  0.98808457  0.07804663     0.70420
O1587       O  0.80589673  0.49215667  0.08500932    -0.74480
O1588       O  0.83990271  0.49494726  0.04352731    -0.55040
C1589       C  0.83569848  0.99377730  0.07223329     0.76420
O1590       O  0.69625391  0.08507228  0.00028283    -0.59620
O1591       O  0.66058218  0.04401285  0.99816591    -0.52740
C1592       C  0.66769323  0.07423857  0.99862248     0.73020
Zr1593     Zr  0.74885321  0.06046097  0.99854537     2.54710
O1594       O  0.74851598  0.09587857  0.04383056    -0.80190
O1595       O  0.74457311  0.10095206  0.45806454    -0.93610
Zr1596     Zr  0.75191750  0.49247434  0.06206696     2.64680
O1597       O  0.75301911  0.03202013  0.10139901    -0.98560
O1598       O  0.75289409  0.44899231  0.09926880    -0.80620
O1599       O  0.78083401  0.02634971  0.02912364    -0.83980
O1600       O  0.72037991  0.02455718  0.03115046    -2.18690
O1601       O  0.69886361  0.99823636  0.39907789    -0.67370
O1602       O  0.66623900  0.99454849  0.44135563    -0.51940
C1603       C  0.67103830  0.49731231  0.41017344     0.71400
O1604       O  0.80570253  0.40543031  0.49128680    -0.60280
O1605       O  0.83951159  0.44807392  0.49320268    -0.52250
C1606       C  0.83336405  0.41791739  0.49446795     0.73200
O1607       O  0.69664426  0.40249264  0.99185504    -0.71670
O1608       O  0.66131057  0.44277311  0.99650998    -0.50350
C1609       C  0.67541727  0.40680721  0.49967420     0.74590
O1610       O  0.79758298  0.50505732  0.40039410    -0.67000
O1611       O  0.83199017  0.49477221  0.44013890    -0.54200
C1612       C  0.82550056  0.50233681  0.41133598     0.72970
Zr1613     Zr  0.74771211  0.49655709  0.42718498     2.77540
O1614       O  0.75085330  0.45196190  0.39093852    -0.97750
O1615       O  0.74540495  0.04152809  0.39208802    -0.78570
Zr1616     Zr  0.74893029  0.42789628  0.99356979     2.70070
O1617       O  0.75136205  0.39279310  0.44397444    -0.79820
O1618       O  0.74737278  0.39003919  0.03646084    -0.98900
Zr1619     Zr  0.80918030  0.49733890  0.49257318     2.21500
Zr1620     Zr  0.68910408  0.99227571  0.99660887     2.11130
O1621       O  0.71877876  0.46025649  0.45938662    -2.47590
O1622       O  0.78079809  0.46340351  0.45760181    -0.79610
O1623       O  0.71784563  0.02746577  0.46401691    -0.71810
O1624       O  0.78076958  0.46048747  0.02691708    -2.32770
O1625       O  0.77826531  0.03069373  0.46223344    -2.28970
O1626       O  0.71957487  0.46062980  0.02814515    -0.73570
H1627       H  0.70690303  0.03650647  0.04494935     0.78430
H1628       H  0.79475024  0.44758462  0.03915597     0.79520
H1629       H  0.70513837  0.44709617  0.44646507     0.81740
H1630       H  0.79116877  0.04494125  0.44992553     0.79350
H1631       H  0.76772315  0.43362775  0.09008635     0.42380
H1632       H  0.72877191  0.39599179  0.04911026     0.41350
H1633       H  0.77046184  0.39883934  0.43195381     0.41030
H1634       H  0.73038852  0.44062751  0.39300581     0.38970
H1635       H  0.73369036  0.05781208  0.40389457     0.42100
H1636       H  0.76347352  0.09790755  0.44481908     0.36880
H1637       H  0.76409000  0.08687140  0.05852729     0.43000
H1638       H  0.73285935  0.04316101  0.09840810     0.39410
H1639       H  0.75008596  0.46159188  0.36980247     0.44330
H1640       H  0.74867854  0.12114115  0.46931855     0.43060
H1641       H  0.75043393  0.02077829  0.12159412     0.43190
H1642       H  0.74127990  0.36968977  0.02641576     0.43550
O1643       O  0.58752267  0.19134657  0.50298319    -0.75320
O1644       O  0.54571002  0.15781372  0.49364056    -0.54230
C1645       C  0.57859415  0.16548583  0.00034638     0.78410
O1646       O  0.49426490  0.29904495  0.08800472    -0.59920
O1647       O  0.49785186  0.33523548  0.04846928    -0.52950
C1648       C  0.49812822  0.32752762  0.07794054     0.70420
O1649       O  0.98972357  0.19497621  0.08541725    -0.74480
O1650       O  0.99503011  0.15887548  0.04542623    -0.55040
C1651       C  0.48836388  0.16733199  0.07675661     0.76420
O1652       O  0.58978707  0.29790633  0.99768560    -0.59620
O1653       O  0.55002639  0.33369073  0.00127519    -0.52740
C1654       C  0.57927351  0.32626484  0.99716688     0.73020
Zr1655     Zr  0.56383171  0.24607268  0.00332780     2.54710
O1656       O  0.59424353  0.24957277  0.05183929    -0.80190
O1657       O  0.60507040  0.23817250  0.45877165    -0.93610
Zr1658     Zr  0.99423279  0.24752575  0.06175100     2.64680
O1659       O  0.52590653  0.24034742  0.10530961    -0.98560
O1660       O  0.94840482  0.25145630  0.09588202    -0.80620
O1661       O  0.52583662  0.21611788  0.03208503    -0.83980
O1662       O  0.52796126  0.27648809  0.03361773    -2.18690
O1663       O  0.49772436  0.30258580  0.40501286    -0.67370
O1664       O  0.50680545  0.33632466  0.44628563    -0.51940
C1665       C  0.00039046  0.33030129  0.41750918     0.71400
O1666       O  0.90568409  0.19886511  0.49013677    -0.60280
O1667       O  0.94410968  0.16118231  0.48921264    -0.52250
C1668       C  0.91491573  0.16999440  0.49100144     0.73200
O1669       O  0.90807985  0.30277412  0.99749350    -0.71670
O1670       O  0.94991871  0.33729842  0.00151988    -0.50350
C1671       C  0.92206778  0.33225347  0.50033065     0.74590
O1672       O  0.00438236  0.20207780  0.39765327    -0.67000
O1673       O  0.99787352  0.16790071  0.43833049    -0.54200
C1674       C  0.00195113  0.17406708  0.40836881     0.72970
Zr1675     Zr  0.50101826  0.25024188  0.42869383     2.77540
O1676       O  0.96176818  0.24671850  0.38873582    -0.97750
O1677       O  0.54752420  0.25458036  0.39543101    -0.78570
Zr1678     Zr  0.93092544  0.24952429  0.99174230     2.70070
O1679       O  0.89877773  0.25432293  0.44383891    -0.79820
O1680       O  0.88867260  0.24692698  0.03039434    -0.98900
Zr1681     Zr  0.99614799  0.18722439  0.49402434     2.21500
Zr1682     Zr  0.49861986  0.30735728  0.99763573     2.11130
O1683       O  0.96866302  0.28112431  0.46042354    -2.47590
O1684       O  0.96647858  0.21951547  0.45917257    -0.79610
O1685       O  0.53486854  0.27714206  0.46475791    -0.71810
O1686       O  0.96218801  0.21797587  0.02570627    -2.32770
O1687       O  0.53054727  0.21679656  0.46301477    -2.28970
O1688       O  0.96322593  0.27869904  0.02784908    -0.73570
H1689       H  0.54015486  0.28974555  0.04778431     0.78430
H1690       H  0.94840802  0.20429817  0.03770154     0.79520
H1691       H  0.95675687  0.29567948  0.44784185     0.81740
H1692       H  0.54307690  0.20267896  0.45041544     0.79350
H1693       H  0.93385138  0.23446300  0.08853128     0.42380
H1694       H  0.89429888  0.26325732  0.04627737     0.41350
H1695       H  0.90338968  0.23494913  0.43162369     0.41030
H1696       H  0.94683833  0.26364370  0.39426790     0.38970
H1697       H  0.56185796  0.26941358  0.40675050     0.42100
H1698       H  0.59926388  0.21862665  0.44711383     0.36880
H1699       H  0.58662222  0.23145751  0.06449047     0.43000
H1700       H  0.54199160  0.25727113  0.10250760     0.39410
H1701       H  0.97205592  0.25413281  0.36919443     0.44330
H1702       H  0.62445399  0.23277098  0.47047771     0.43060
H1703       H  0.51393832  0.24681462  0.12418914     0.43190
H1704       H  0.86995805  0.25532517  0.01946644     0.43550
C1705       C  0.64183109  0.09688354  0.98894070     0.03100
C1706       C  0.62838132  0.08833476  0.95994873    -0.13050
C1707       C  0.59752086  0.09720938  0.95480986     0.00600
C1708       C  0.59355064  0.12908476  0.95979563    -0.11580
C1709       C  0.60166023  0.14037557  0.98957289     0.03090
C1710       C  0.62739421  0.12375680  0.00530900    -0.11000
H1711       H  0.63763923  0.06870764  0.94671129     0.08690
H1712       H  0.57713544  0.14184591  0.94554665     0.06220
H1713       H  0.63492666  0.13052525  0.02872591     0.06060
C1714       C  0.64962061  0.38404591  0.50900339     0.03100
C1715       C  0.62572920  0.39969072  0.52463131    -0.13050
C1716       C  0.59689512  0.39922196  0.50965956     0.00600
C1717       C  0.59043901  0.37716819  0.48650729    -0.11580
C1718       C  0.60758317  0.34965557  0.48730846     0.03090
C1719       C  0.64057593  0.35428426  0.49443431    -0.11000
H1720       H  0.63129741  0.41883395  0.54093290     0.08690
H1721       H  0.56840176  0.37825296  0.47349835     0.06220
H1722       H  0.65781251  0.33661650  0.48852548     0.06060
C1723       C  0.85345484  0.10273328  0.50878033     0.03100
C1724       C  0.86680500  0.09617308  0.53812457    -0.13050
C1725       C  0.89753414  0.10701644  0.54369167     0.00600
C1726       C  0.90386486  0.13741108  0.53477564    -0.11580
C1727       C  0.89309729  0.14628411  0.50510833     0.03090
C1728       C  0.86734477  0.12841362  0.49105881    -0.11000
H1729       H  0.85856642  0.07549127  0.55085510     0.08690
H1730       H  0.92452387  0.14895909  0.54502032     0.06220
H1731       H  0.85945254  0.13337854  0.46742334     0.06060
C1732       C  0.90069958  0.35821810  0.51149169     0.03100
C1733       C  0.91026915  0.37287468  0.53962868    -0.13050
C1734       C  0.89953951  0.40314643  0.54686294     0.00600
C1735       C  0.86970232  0.41072877  0.53696054    -0.11580
C1736       C  0.85863677  0.39825595  0.50846709     0.03090
C1737       C  0.87411659  0.37122393  0.49520871    -0.11000
H1738       H  0.93152500  0.36481612  0.55118551     0.08690
H1739       H  0.85930709  0.43201903  0.54654820     0.06220
H1740       H  0.86670079  0.36164615  0.47270420     0.06060
O1741       O  0.02606873  0.09858808  0.55599154    -0.86520
O1742       O  0.51950280  0.41761250  0.56123360    -0.86680
O1743       O  0.96570576  0.51794278  0.60861248    -0.88350
O1744       O  0.56398192  0.02618582  0.59391876    -0.87110
O1745       O  0.59904577  0.02259405  0.55331746    -0.86700
O1746       O  0.94961657  0.54000280  0.56561067    -0.88070
O1747       O  0.03379757  0.45646947  0.59648919    -0.86550
O1748       O  0.02881408  0.06096208  0.59453586    -0.86130
Zr1749     Zr  0.01312503  0.50811588  0.57769871     2.84310
O1750       O  0.53622635  0.47395294  0.54298424    -1.08110
O1751       O  0.97778944  0.03689694  0.54380851    -1.08840
C1752       C  0.03362937  0.08914980  0.58392028     1.06590
C1753       C  0.03374197  0.42731953  0.58625688     1.06530
C1754       C  0.94353928  0.53086101  0.59289833     1.09520
C1755       C  0.59140103  0.03047774  0.58189975     1.07290
H1756       H  0.96293593  0.46542408  0.57093859     0.32850
O1757       O  0.97367731  0.47611494  0.55399485    -1.29060
H1758       H  0.55616765  0.05317747  0.54427822     0.32530
O1759       O  0.53992927  0.03817545  0.53906540    -1.30740
O1760       O  0.47813413  0.41914052  0.96105673    -0.86510
O1761       O  0.99959161  0.08960551  0.95796273    -0.88010
O1762       O  0.91083751  0.45858249  0.03757842    -0.86590
O1763       O  0.58718900  0.45172936  0.51740656    -0.86640
O1764       O  0.58747240  0.04657818  0.47815418    -0.86350
O1765       O  0.91580520  0.05228804  0.02975467    -0.86160
O1766       O  0.95093351  0.52628811  0.93281641    -0.86530
O1767       O  0.53729041  0.99541138  0.92382520    -0.85990
O1768       O  0.91206869  0.51250554  0.96725938    -0.87050
O1769       O  0.57926310  0.99368824  0.95782314    -0.86210
O1770       O  0.94926443  0.42098154  0.03735598    -0.86610
O1771       O  0.95495310  0.09064299  0.02930664    -0.86330
O1772       O  0.55208085  0.08676313  0.48114878    -0.85980
O1773       O  0.54612550  0.41593392  0.51129888    -0.86390
O1774       O  0.47392878  0.45865236  0.92482194    -0.86690
O1775       O  0.50732415  0.04785038  0.92704577    -0.88020
Zr1776     Zr  0.50119567  0.44113065  0.00924700     2.83100
Zr1777     Zr  0.00219571  0.07161162  0.51122178     2.83500
Zr1778     Zr  0.93655694  0.50854389  0.02071613     2.84090
Zr1779     Zr  0.56648532  0.00300357  0.50893469     2.83360
Zr1780     Zr  0.49290372  0.00469361  0.95621662     2.84220
O1781       O  0.52799979  0.03605174  0.98182585    -1.08600
O1782       O  0.96089456  0.47416734  0.98700306    -1.08100
C1783       C  0.47052113  0.42983276  0.93360239     1.06560
C1784       C  0.50165363  0.07663576  0.93218623     1.09180
C1785       C  0.92080882  0.42984438  0.04140406     1.06740
C1786       C  0.57532855  0.42389928  0.51388703     1.07100
C1787       C  0.57778352  0.07441208  0.47077453     1.06680
C1788       C  0.92606349  0.08054330  0.03445687     1.06230
C1789       C  0.92257920  0.52028629  0.93955497     1.06660
C1790       C  0.56659794  0.99337713  0.93053165     1.06170
H1791       H  0.95363324  0.05558811  0.97637596     0.32850
O1792       O  0.96769811  0.03949394  0.98383551    -1.29690
H1793       H  0.53527034  0.45956384  0.95621673     0.32870
O1794       O  0.52820703  0.47180267  0.97387366    -1.31080
C1795       C  0.50253142  0.10330573  0.64210409     0.03100
C1796       C  0.53528332  0.10417059  0.63749983    -0.13050
C1797       C  0.54487597  0.11297019  0.60764246     0.00600
C1798       C  0.53375630  0.14210993  0.59895787    -0.11580
C1799       C  0.50092866  0.14543695  0.60060980     0.03090
C1800       C  0.48408991  0.12492350  0.62280090    -0.11000
H1801       H  0.55010008  0.08827224  0.65062526     0.08690
H1802       H  0.54732221  0.15555946  0.58189407     0.06220
H1803       H  0.45863387  0.12517741  0.62433393     0.06060
O1804       O  0.98869024  0.08798950  0.69362741    -0.75320
O1805       O  0.99567331  0.04848289  0.65760696    -0.54230
C1806       C  0.49242258  0.07804252  0.66526693     0.78410
O1807       O  0.59196516  0.99203955  0.79513834    -0.59920
O1808       O  0.55086616  0.99608691  0.82897047    -0.52950
C1809       C  0.58066310  0.99213835  0.82310876     0.70420
O1810       O  0.58917349  0.49105709  0.69236588    -0.74480
O1811       O  0.54953279  0.49494966  0.65614444    -0.55040
C1812       C  0.57955523  0.99379050  0.66551009     0.76420
O1813       O  0.49297221  0.09252662  0.79449826    -0.59620
O1814       O  0.49594985  0.05176279  0.82882489    -0.52740
C1815       C  0.49343997  0.08175138  0.82265072     0.72980
Zr1816     Zr  0.99449974  0.06236661  0.74430770     2.54710
O1817       O  0.53759200  0.10110972  0.74094147    -0.80190
O1818       O  0.94976347  0.09786353  0.74668997    -0.93610
Zr1819     Zr  0.56399745  0.49705365  0.74305822     2.64680
O1820       O  0.59747972  0.04393271  0.74367552    -0.98560
O1821       O  0.60518582  0.45759216  0.74108407    -0.80620
O1822       O  0.52857231  0.02938525  0.71454273    -0.83980
O1823       O  0.53056906  0.03214483  0.77459985    -2.18690
O1824       O  0.90541640  0.99251567  0.80068447    -0.67370
O1825       O  0.94877010  0.99582102  0.83211018    -0.51940
C1826       C  0.91729293  0.49609050  0.82846271     0.71400
O1827       O  0.99918132  0.40236025  0.69803396    -0.60280
O1828       O  0.99572565  0.44104881  0.66050839    -0.52250
C1829       C  0.99946852  0.41195855  0.66938768     0.73200
O1830       O  0.49517280  0.40610534  0.80231861    -0.71670
O1831       O  0.50004528  0.44857772  0.83554522    -0.50350
C1832       C  0.99351368  0.41999935  0.83173247     0.74590
O1833       O  0.90130233  0.49131266  0.69866284    -0.67000
O1834       O  0.94106877  0.48923615  0.66225527    -0.54200
C1835       C  0.91136102  0.49136748  0.67031019     0.72970
Zr1836     Zr  0.93001293  0.99229744  0.74811732     2.77540
O1837       O  0.89404414  0.44688469  0.74895740    -0.97750
O1838       O  0.89116912  0.03409228  0.74996626    -0.78570
Zr1839     Zr  0.49850582  0.42805491  0.74806296     2.70070
O1840       O  0.95558899  0.38815702  0.74800174    -0.79820
O1841       O  0.54300169  0.39246660  0.75135637    -0.98900
Zr1842     Zr  0.99546603  0.49409499  0.68479999     2.21500
Zr1843     Zr  0.49818881  0.99849642  0.80534884     2.11130
O1844       O  0.96393907  0.46209135  0.77879662    -2.47590
O1845       O  0.96353344  0.46058963  0.71784318    -0.79610
O1846       O  0.96352840  0.02819019  0.77614014    -0.71810
O1847       O  0.52983166  0.46189237  0.71510562    -2.32770
O1848       O  0.96148605  0.02642121  0.71549466    -2.28970
O1849       O  0.53284240  0.46332295  0.77537876    -0.73570
H1850       H  0.54344609  0.04577903  0.78780903     0.78430
H1851       H  0.54273722  0.44885833  0.70176520     0.79520
H1852       H  0.95155326  0.44971345  0.79335805     0.81740
H1853       H  0.94770992  0.03849959  0.70220992     0.79350
H1854       H  0.59381576  0.43739438  0.73698862     0.42380
H1855       H  0.55428689  0.39893809  0.77079967     0.41350
H1856       H  0.93943668  0.39669159  0.73364701     0.41030
H1857       H  0.89936388  0.43550960  0.76848933     0.38970
H1858       H  0.90028975  0.05007878  0.76456975     0.42100
H1859       H  0.93583233  0.09130106  0.72905715     0.36880
H1860       H  0.55043375  0.09368209  0.72301293     0.43000
H1861       H  0.59876848  0.05132453  0.76576535     0.39410
H1862       H  0.87289592  0.45566712  0.75297993     0.44330
H1863       H  0.95836668  0.11876640  0.74043920     0.43060
H1864       H  0.61870791  0.03559157  0.73914948     0.43190
H1865       H  0.53340288  0.37165486  0.75640785     0.43550
C1866       C  0.88996041  0.00560812  0.64602597     0.03100
C1867       C  0.90474570  0.03192951  0.63345834    -0.13050
C1868       C  0.91142038  0.02902586  0.60223697     0.00600
C1869       C  0.88870833  0.01514792  0.58238653    -0.11580
C1870       C  0.86212747  0.99978310  0.59509992     0.03090
C1871       C  0.86513494  0.99081455  0.62765437    -0.11000
H1872       H  0.92147161  0.04542045  0.64781955     0.08690
H1873       H  0.89257971  0.01398194  0.55751317     0.06220
H1874       H  0.85008259  0.97260824  0.63756560     0.06060
C1875       C  0.51845427  0.35461063  0.59959974     0.03100
C1876       C  0.54560924  0.37193237  0.59068193    -0.13050
C1877       C  0.54997134  0.40224796  0.60356265     0.00600
C1878       C  0.54414750  0.40446455  0.63505346    -0.11580
C1879       C  0.51549359  0.39122004  0.64492037     0.03090
C1880       C  0.50202240  0.36531768  0.62716004    -0.11000
H1881       H  0.55665529  0.36682779  0.56827591     0.08690
H1882       H  0.55399436  0.42490120  0.64735863     0.06220
H1883       H  0.47929125  0.35527713  0.63339650     0.06060
C1884       C  0.64872502  0.99891441  0.60169912     0.03100
C1885       C  0.64465595  0.03134079  0.59713143    -0.13050
C1886       C  0.61544046  0.04240819  0.60455121     0.00600
C1887       C  0.60646536  0.03517490  0.63521111    -0.11580
C1888       C  0.60537193  0.00274679  0.64204901     0.03090
C1889       C  0.62777939  0.98327689  0.62448573    -0.11000
H1890       H  0.65797100  0.04391559  0.57924167     0.08690
H1891       H  0.59025679  0.05083064  0.64699462     0.06220
H1892       H  0.62822208  0.95793690  0.62757816     0.06060
C1893       C  0.98444118  0.40152436  0.86080578     0.03100
C1894       C  0.99469771  0.37070420  0.87022069    -0.13050
C1895       C  0.98543366  0.35897006  0.90060990     0.00600
C1896       C  0.96581977  0.37730839  0.91947415    -0.11580
C1897       C  0.96305104  0.40874248  0.91345019     0.03090
C1898       C  0.96699658  0.41908735  0.88269635    -0.11000
H1899       H  0.01040627  0.35728016  0.85541882     0.08690
H1900       H  0.95839075  0.36917807  0.94249809     0.06220
H1901       H  0.96043321  0.44312875  0.87735084     0.06060
C1902       C  0.60068902  0.98640694  0.85202628     0.03100
C1903       C  0.58190505  0.97826565  0.87763598    -0.13050
C1904       C  0.58833932  0.99305899  0.90559504     0.00600
C1905       C  0.61611960  0.00934991  0.91006619    -0.11580
C1906       C  0.64135666  0.00120435  0.89186193     0.03090
C1907       C  0.63364036  0.99371070  0.85929154    -0.11000
H1908       H  0.55928695  0.96623435  0.87472200     0.08690
H1909       H  0.61968664  0.02237850  0.93173259     0.06220
H1910       H  0.65153448  0.99385943  0.84120961     0.06060
C1911       C  0.49153655  0.10312555  0.85136518     0.03100
C1912       C  0.48656229  0.08600306  0.87869253    -0.13050
C1913       C  0.50288426  0.09512596  0.90521396     0.00600
C1914       C  0.52112363  0.12161739  0.90556828    -0.11580
C1915       C  0.51023735  0.14583574  0.88744244     0.03090
C1916       C  0.49880158  0.13655162  0.85636038    -0.11000
H1917       H  0.47404005  0.06343613  0.87849404     0.08690
H1918       H  0.53453279  0.12630056  0.92657434     0.06220
H1919       H  0.49573294  0.15369085  0.83788704     0.06060
C1920       C  0.89797462  0.49998290  0.85821532     0.03100
C1921       C  0.91614257  0.50566421  0.88501739    -0.13050
C1922       C  0.90335240  0.51907878  0.91189295     0.00600
C1923       C  0.87280640  0.52803452  0.91213248    -0.11580
C1924       C  0.85246247  0.51079729  0.89273256     0.03090
C1925       C  0.86436576  0.49896155  0.86314855    -0.11000
H1926       H  0.94091613  0.49978668  0.88527683     0.08690
H1927       H  0.86419965  0.54018905  0.93295022     0.06220
H1928       H  0.84871436  0.48835832  0.84583994     0.06060
O1929       O  0.80118660  0.08653681  0.00021566    -0.75320
O1930       O  0.83784489  0.04745705  0.99673573    -0.54230
C1931       C  0.82865299  0.07901306  0.49852370     0.78410
O1932       O  0.70036094  0.98427221  0.58655077    -0.59920
O1933       O  0.66247147  0.98804232  0.54824774    -0.52950
C1934       C  0.67137085  0.98641021  0.57761336     0.70420
O1935       O  0.80538835  0.49201420  0.58405953    -0.74480
O1936       O  0.83920145  0.49839996  0.54281171    -0.55040
C1937       C  0.83432875  0.99426605  0.57293400     0.76420
O1938       O  0.69534618  0.08477358  0.50095758    -0.59620
O1939       O  0.66017572  0.04332317  0.49752981    -0.52740
C1940       C  0.66699410  0.07365282  0.49855265     0.73020
Zr1941     Zr  0.74791493  0.06067761  0.49855834     2.54710
O1942       O  0.74821007  0.09579405  0.54407578    -0.80190
O1943       O  0.74750919  0.10087201  0.95806117    -0.93610
Zr1944     Zr  0.75159673  0.49080253  0.56040669     2.64680
O1945       O  0.75187707  0.03166510  0.60059005    -0.98560
O1946       O  0.75422395  0.44707618  0.59722813    -0.80620
O1947       O  0.78029523  0.02699836  0.52914410    -0.83980
O1948       O  0.71967155  0.02402714  0.53061727    -2.18690
O1949       O  0.69813993  0.99788086  0.89997689    -0.67370
O1950       O  0.66578664  0.99487899  0.94248388    -0.51940
C1951       C  0.67104993  0.49876833  0.91059690     0.71400
O1952       O  0.80126747  0.40367094  0.99649457    -0.60280
O1953       O  0.83713104  0.44448452  0.99283333    -0.52250
C1954       C  0.82967393  0.41490241  0.99673685     0.73200
O1955       O  0.70366592  0.39711809  0.49625569    -0.71670
O1956       O  0.66732352  0.43646563  0.49793320    -0.50350
C1957       C  0.66842506  0.41324363  0.99267727     0.74590
O1958       O  0.79711549  0.50198281  0.90102714    -0.67000
O1959       O  0.83213410  0.49305955  0.94063454    -0.54200
C1960       C  0.82516518  0.49958822  0.91162599     0.72970
Zr1961     Zr  0.74775942  0.49582267  0.92896935     2.77540
O1962       O  0.75024988  0.45032349  0.89377274    -0.97750
O1963       O  0.74643533  0.04082468  0.89261108    -0.78570
Zr1964     Zr  0.75246369  0.42731308  0.48992134     2.70070
O1965       O  0.75027592  0.38994662  0.95041205    -0.79820
O1966       O  0.75871356  0.38730368  0.53037864    -0.98900
Zr1967     Zr  0.80981652  0.49531400  0.99365500     2.21500
Zr1968     Zr  0.68890025  0.99149177  0.49587328     2.11130
O1969       O  0.71739079  0.46181497  0.96202650    -2.47590
O1970       O  0.77905556  0.46180943  0.96019178    -0.79610
O1971       O  0.71827577  0.02751117  0.96418867    -0.71810
O1972       O  0.78172456  0.46065341  0.52472918    -2.32770
O1973       O  0.77867025  0.02956304  0.96230621    -2.28970
O1974       O  0.72177323  0.45816430  0.52527460    -0.73570
H1975       H  0.70601978  0.03566581  0.54449936     0.78430
H1976       H  0.79622854  0.44817167  0.53679935     0.79520
H1977       H  0.70339400  0.44915233  0.94900793     0.81740
H1978       H  0.79190197  0.04342949  0.94990943     0.79350
H1979       H  0.76967717  0.43241343  0.58793261     0.42380
H1980       H  0.74181814  0.39148013  0.54583527     0.41350
H1981       H  0.76719193  0.39792293  0.93641844     0.41030
H1982       H  0.73012883  0.43865938  0.89700865     0.38970
H1983       H  0.73511171  0.05736106  0.90445645     0.42100
H1984       H  0.76677222  0.09753873  0.94542257     0.36880
H1985       H  0.76463938  0.08722883  0.55809894     0.43000
H1986       H  0.73144836  0.04233994  0.59770698     0.39410
H1987       H  0.74839930  0.45931659  0.87242711     0.44330
H1988       H  0.75159358  0.12096409  0.96949492     0.43060
H1989       H  0.74965218  0.02036723  0.62079456     0.43190
H1990       H  0.75252347  0.36704850  0.52019950     0.43550
O1991       O  0.58910004  0.19378170  0.00531073    -0.75320
O1992       O  0.54856031  0.15853081  0.99697736    -0.54230
C1993       C  0.57611926  0.16359979  0.49734044     0.78410
O1994       O  0.50106261  0.30150595  0.58666876    -0.59920
O1995       O  0.50816039  0.33721716  0.54707606    -0.52950
C1996       C  0.50731449  0.32965916  0.57660932     0.70420
O1997       O  0.98595973  0.19719329  0.58609470    -0.74480
O1998       O  0.99326349  0.16058113  0.54693564    -0.55040
C1999       C  0.48934322  0.16823945  0.57615765     0.76420
O2000       O  0.59643814  0.29277395  0.49256211    -0.59620
O2001       O  0.55638623  0.32758296  0.49190372    -0.52740
C2002       C  0.58613699  0.32102467  0.49025952     0.73020
Zr2003     Zr  0.56464444  0.24421245  0.49895331     2.54710
O2004       O  0.59729280  0.24737031  0.54603021    -0.80190
O2005       O  0.60851128  0.24435858  0.96741812    -0.93610
Zr2006     Zr  0.99387178  0.24870577  0.56150451     2.64680
O2007       O  0.53240822  0.24236779  0.60306341    -0.98560
O2008       O  0.94782819  0.25480182  0.59499654    -0.80620
O2009       O  0.52667248  0.21616351  0.52973508    -0.83980
O2010       O  0.53190717  0.27674582  0.53089678    -2.18690
O2011       O  0.49990155  0.30304474  0.90579371    -0.67370
O2012       O  0.50199575  0.33647519  0.94805111    -0.51940
C2013       C  0.99726359  0.33112148  0.91813863     0.71400
O2014       O  0.90536476  0.19705415  0.99279004    -0.60280
O2015       O  0.94447039  0.16020813  0.98969275    -0.52250
C2016       C  0.91522881  0.16838757  0.99288983     0.73200
O2017       O  0.91009603  0.30442752  0.49558228    -0.71670
O2018       O  0.95223485  0.33852740  0.50049337    -0.50350
C2019       C  0.91982545  0.33075774  0.00193168     0.74590
O2020       O  0.00162608  0.20268474  0.89720465    -0.67000
O2021       O  0.99586488  0.16789984  0.93754083    -0.54200
C2022       C  0.99948175  0.17452386  0.90762602     0.72970
Zr2023     Zr  0.50423194  0.25018285  0.92923442     2.77540
O2024       O  0.95874625  0.24763083  0.88917169    -0.97750
O2025       O  0.55246927  0.25563360  0.89866804    -0.78570
Zr2026     Zr  0.93215180  0.25089797  0.49027551     2.70070
O2027       O  0.89669822  0.25184805  0.94583870    -0.79820
O2028       O  0.88929742  0.24868919  0.52828682    -0.98900
Zr2029     Zr  0.99612665  0.18694258  0.99332822     2.21500
Zr2030     Zr  0.50195877  0.30899779  0.49655089     2.11130
O2031       O  0.96628585  0.28055282  0.96122749    -2.47590
O2032       O  0.96520395  0.21917371  0.95950965    -0.79610
O2033       O  0.53504607  0.27807125  0.96729829    -0.71810
O2034       O  0.96206157  0.21923116  0.52521066    -2.32770
O2035       O  0.53339759  0.21764973  0.96506942    -2.28970
O2036       O  0.96414048  0.28001720  0.52670681    -0.73570
H2037       H  0.54550042  0.28941807  0.54431237     0.78430
H2038       H  0.94770284  0.20596876  0.53699550     0.79520
H2039       H  0.95401134  0.29508373  0.94897105     0.81740
H2040       H  0.54735327  0.20433813  0.95311617     0.79350
H2041       H  0.93252812  0.23865157  0.58727698     0.42380
H2042       H  0.89469543  0.26515876  0.54410275     0.41350
H2043       H  0.90197508  0.23281112  0.93338163     0.41030
H2044       H  0.94386237  0.26444059  0.89516600     0.38970
H2045       H  0.56538106  0.27151382  0.91027576     0.42100
H2046       H  0.60434077  0.22593895  0.95349244     0.36880
H2047       H  0.58876034  0.23059120  0.55986990     0.43000
H2048       H  0.54833845  0.25928741  0.59950582     0.39410
H2049       H  0.96870791  0.25533030  0.86957234     0.44330
H2050       H  0.62669264  0.23814804  0.98053745     0.43060
H2051       H  0.52137341  0.24884011  0.62250451     0.43190
H2052       H  0.87078312  0.25702820  0.51697921     0.43550
C2053       C  0.64150034  0.09619560  0.48790082     0.03100
C2054       C  0.63023135  0.08800287  0.45792943    -0.13050
C2055       C  0.59916013  0.09504391  0.45196246     0.00600
C2056       C  0.59327913  0.12674973  0.45701853    -0.11580
C2057       C  0.59936912  0.13809625  0.48731862     0.03090
C2058       C  0.62516825  0.12225041  0.50395842    -0.11000
H2059       H  0.64099961  0.06910563  0.44470028     0.08690
H2060       H  0.57761321  0.13907261  0.44162313     0.06220
H2061       H  0.63138770  0.12896214  0.52776356     0.06060
C2062       C  0.64183683  0.39270906  0.98181652     0.03100
C2063       C  0.62400117  0.40726201  0.95847966    -0.13050
C2064       C  0.59219580  0.40097334  0.95862373     0.00600
C2065       C  0.58365939  0.36979300  0.96162137    -0.11580
C2066       C  0.59938267  0.35229240  0.98450645     0.03090
C2067       C  0.62938658  0.36417951  0.99573805    -0.11000
H2068       H  0.63176529  0.42966619  0.94860313     0.08690
H2069       H  0.56019233  0.36289391  0.95377973     0.06220
H2070       H  0.64131721  0.35304685  0.01516816     0.06060
C2071       C  0.85540243  0.09985048  0.01049503     0.03100
C2072       C  0.87051138  0.09142062  0.03845545    -0.13050
C2073       C  0.90119936  0.10269847  0.04371213     0.00600
C2074       C  0.90721241  0.13337541  0.03550609    -0.11580
C2075       C  0.89452755  0.14380714  0.00714584     0.03090
C2076       C  0.86801164  0.12672125  0.99374254    -0.11000
H2077       H  0.86305975  0.06989309  0.05023844     0.08690
H2078       H  0.92842619  0.14452017  0.04502487     0.06220
H2079       H  0.85860644  0.13314491  0.97103856     0.06060
C2080       C  0.89847377  0.35684001  0.01302130     0.03100
C2081       C  0.90956981  0.37346797  0.03949922    -0.13050
C2082       C  0.89818206  0.40363715  0.04614169     0.00600
C2083       C  0.86764456  0.40990011  0.03774086    -0.11580
C2084       C  0.85510474  0.39551876  0.01075692     0.03090
C2085       C  0.87054439  0.36830101  0.99781808    -0.11000
H2086       H  0.93172583  0.36660127  0.05012262     0.08690
H2087       H  0.85735395  0.43146545  0.04679168     0.06220
H2088       H  0.86212169  0.35752061  0.97620389     0.06060
O2089       O  0.02605113  0.59862113  0.05685221    -0.86520
O2090       O  0.51569612  0.91883159  0.05997707    -0.86680
O2091       O  0.97190966  0.01129901  0.10742807    -0.88350
O2092       O  0.57229270  0.49604501  0.07742466    -0.87110
O2093       O  0.60274930  0.51787629  0.04113127    -0.86700
O2094       O  0.95774618  0.03201623  0.06384007    -0.88070
O2095       O  0.03031395  0.95203963  0.09324740    -0.86550
O2096       O  0.02845018  0.56091154  0.09534735    -0.86130
Zr2097     Zr  0.01693041  0.00411010  0.07256940     2.84310
O2098       O  0.53346277  0.97515958  0.04320564    -1.08110
O2099       O  0.97780799  0.53684907  0.04402453    -1.08840
C2100       C  0.03333635  0.58914172  0.08482716     1.06590
C2101       C  0.03400816  0.92411107  0.08107116     1.06530
C2102       C  0.94987785  0.02271613  0.09061503     1.09520
C2103       C  0.59300587  0.51657430  0.06955736     1.07290
H2104       H  0.96632859  0.96222684  0.06371356     0.32850
O2105       O  0.97662373  0.97381151  0.04708365    -1.29060
H2106       H  0.55850182  0.55021357  0.04096118     0.32530
O2107       O  0.54196894  0.53606253  0.03426584    -1.30740
O2108       O  0.47968993  0.91848908  0.46769708    -0.86510
O2109       O  0.00028940  0.58680709  0.45848567    -0.88010
O2110       O  0.91117347  0.95885868  0.53836205    -0.86590
O2111       O  0.58336591  0.95433862  0.01654214    -0.86640
O2112       O  0.58694362  0.54779483  0.97368221    -0.86350
O2113       O  0.91806333  0.55470031  0.52899022    -0.86160
O2114       O  0.95064135  0.02451466  0.43227487    -0.86530
O2115       O  0.54041597  0.49050416  0.42348988    -0.85990
O2116       O  0.91194675  0.01138803  0.46720156    -0.87050
O2117       O  0.58291625  0.49025832  0.45697571    -0.86210
O2118       O  0.94949355  0.92110206  0.53792949    -0.86610
O2119       O  0.95537139  0.59352498  0.51861657    -0.86330
O2120       O  0.55279284  0.58856599  0.98132719    -0.85980
O2121       O  0.54246660  0.91864355  0.00963892    -0.86390
O2122       O  0.47508056  0.95755896  0.43139146    -0.86690
O2123       O  0.50880457  0.54461078  0.42571034    -0.88020
Zr2124     Zr  0.49788980  0.94332477  0.51788798     2.83100
Zr2125     Zr  0.00240043  0.57198582  0.01188239     2.83500
Zr2126     Zr  0.93672176  0.00831099  0.52058889     2.84090
Zr2127     Zr  0.56672561  0.50138644  0.00017166     2.83360
Zr2128     Zr  0.49719490  0.50085299  0.45604797     2.84220
O2129       O  0.53239899  0.53278568  0.48050287    -1.08600
O2130       O  0.96097591  0.97354999  0.48707379    -1.08100
C2131       C  0.47235941  0.92891834  0.43986588     1.06560
C2132       C  0.50459361  0.57367150  0.43136160     1.09180
C2133       C  0.92109900  0.93015433  0.54229072     1.06740
C2134       C  0.57165153  0.92653926  0.01251806     1.07100
C2135       C  0.57804838  0.57644889  0.96936981     1.06680
C2136       C  0.92711103  0.58293316  0.52365780     1.06230
C2137       C  0.92236627  0.01865273  0.43933326     1.06660
C2138       C  0.56973936  0.48926493  0.42984120     1.06170
H2139       H  0.95586968  0.55119782  0.47566298     0.32850
O2140       O  0.96923112  0.53644447  0.48633803    -1.29690
H2141       H  0.53905852  0.95389992  0.46909099     0.32870
O2142       O  0.53003001  0.96938022  0.48304383    -1.31080
C2143       C  0.50388403  0.60085854  0.14062560     0.03100
C2144       C  0.53652015  0.60023599  0.13602404    -0.13050
C2145       C  0.54682110  0.60849026  0.10631206     0.00600
C2146       C  0.53668904  0.63803762  0.09731136    -0.11580
C2147       C  0.50403405  0.64282298  0.09911409     0.03090
C2148       C  0.48641065  0.62314179  0.12134631    -0.11000
H2149       H  0.55102026  0.58523551  0.15040314     0.08690
H2150       H  0.55061578  0.65082826  0.08004411     0.06220
H2151       H  0.46103278  0.62469402  0.12312114     0.06060
O2152       O  0.98783821  0.58740233  0.19424732    -0.75320
O2153       O  0.99508834  0.54777031  0.15843292    -0.54230
C2154       C  0.49299796  0.57670155  0.16443150     0.78410
O2155       O  0.59182980  0.49101139  0.29392606    -0.59920
O2156       O  0.55128233  0.49493975  0.32857837    -0.52950
C2157       C  0.58099701  0.49098727  0.32207818     0.70420
O2158       O  0.58851280  0.99179533  0.19391802    -0.74480
O2159       O  0.54882475  0.99521069  0.15765412    -0.55040
C2160       C  0.57753577  0.49468514  0.16436414     0.76420
O2161       O  0.49142228  0.59239537  0.29443241    -0.59620
O2162       O  0.49561956  0.55117641  0.32788855    -0.52740
C2163       C  0.49229339  0.58116408  0.32237793     0.72980
Zr2164     Zr  0.99380297  0.56217932  0.24509618     2.54710
O2165       O  0.53889756  0.60005483  0.24306453    -0.80190
O2166       O  0.94928512  0.59796096  0.24728164    -0.93610
Zr2167     Zr  0.56298860  0.99673452  0.24491102     2.64680
O2168       O  0.59790201  0.54243739  0.24338484    -0.98560
O2169       O  0.60393000  0.95702244  0.24282130    -0.80620
O2170       O  0.52804935  0.52882192  0.21424051    -0.83980
O2171       O  0.53067518  0.53136130  0.27422471    -2.18690
O2172       O  0.90445770  0.49368130  0.30160151    -0.67370
O2173       O  0.94768086  0.49694942  0.33320168    -0.51940
C2174       C  0.91712645  0.99626769  0.32841803     0.71400
O2175       O  0.99704424  0.90234926  0.19735089    -0.60280
O2176       O  0.99446227  0.94135503  0.16014876    -0.52250
C2177       C  0.99736724  0.91209864  0.16872569     0.73200
O2178       O  0.49306946  0.90661660  0.30417296    -0.71670
O2179       O  0.49761240  0.94941675  0.33692583    -0.50350
C2180       C  0.99331118  0.91997221  0.33134484     0.74590
O2181       O  0.90090639  0.99589108  0.19870693    -0.67000
O2182       O  0.94037114  0.98815845  0.16288175    -0.54200
C2183       C  0.91106436  0.99350533  0.17050022     0.72970
Zr2184     Zr  0.92899664  0.49238074  0.24889723     2.77540
O2185       O  0.89301119  0.94836876  0.24736522    -0.97750
O2186       O  0.88999773  0.53405194  0.24990158    -0.78570
Zr2187     Zr  0.49675295  0.92809503  0.24942152     2.70070
O2188       O  0.95439232  0.88824694  0.24837480    -0.79820
O2189       O  0.54063272  0.89179762  0.25318460    -0.98900
Zr2190     Zr  0.99445640  0.99397484  0.18506793     2.21500
Zr2191     Zr  0.49823774  0.49784263  0.30522375     2.11130
O2192       O  0.96324984  0.96250571  0.27844794    -2.47590
O2193       O  0.96226047  0.96082248  0.21794541    -0.79610
O2194       O  0.96241821  0.52831766  0.27690093    -0.71810
O2195       O  0.52861279  0.96183996  0.21674483    -2.32770
O2196       O  0.96090077  0.52614406  0.21629859    -2.28970
O2197       O  0.53130851  0.96315956  0.27688389    -0.73570
H2198       H  0.54376618  0.54479473  0.28742838     0.78430
H2199       H  0.54150496  0.94879202  0.20339536     0.79520
H2200       H  0.95085566  0.95018891  0.29305746     0.81740
H2201       H  0.94724794  0.53819833  0.20286626     0.79350
H2202       H  0.59242023  0.93689780  0.23874885     0.42380
H2203       H  0.55213072  0.89845352  0.27244439     0.41350
H2204       H  0.93813616  0.89668361  0.23407791     0.41030
H2205       H  0.89824904  0.93627562  0.26648471     0.38970
H2206       H  0.89909320  0.55038445  0.26413825     0.42100
H2207       H  0.93524033  0.59128046  0.22978024     0.36880
H2208       H  0.55182725  0.59299112  0.22505337     0.43000
H2209       H  0.59854465  0.55012354  0.26540046     0.39410
H2210       H  0.87197709  0.95724811  0.25175198     0.44330
H2211       H  0.95796993  0.61874892  0.24077202     0.43060
H2212       H  0.61912701  0.53368335  0.23972436     0.43190
H2213       H  0.53070845  0.87125552  0.25868407     0.43550
C2214       C  0.88977995  0.50544270  0.14642415     0.03100
C2215       C  0.90459064  0.53171055  0.13378647    -0.13050
C2216       C  0.91116455  0.52884297  0.10252757     0.00600
C2217       C  0.88847900  0.51485458  0.08272455    -0.11580
C2218       C  0.86195746  0.49949003  0.09553413     0.03090
C2219       C  0.86493116  0.49065695  0.12811913    -0.11000
H2220       H  0.92133263  0.54521005  0.14812149     0.08690
H2221       H  0.89225949  0.51372673  0.05782179     0.06220
H2222       H  0.84982111  0.47254021  0.13810461     0.06060
C2223       C  0.51579554  0.85433585  0.09986549     0.03100
C2224       C  0.54174508  0.87258553  0.08946315    -0.13050
C2225       C  0.54619576  0.90286527  0.10221159     0.00600
C2226       C  0.54151982  0.90530406  0.13388876    -0.11580
C2227       C  0.51373202  0.89141196  0.14517045     0.03090
C2228       C  0.50031454  0.86482260  0.12817625    -0.11000
H2229       H  0.55187738  0.86777654  0.06655978     0.08690
H2230       H  0.55139877  0.92607252  0.14561581     0.06220
H2231       H  0.47826679  0.85407466  0.13556120     0.06060
C2232       C  0.64904435  0.50405353  0.10382812     0.03100
C2233       C  0.63908446  0.53388118  0.09438252    -0.13050
C2234       C  0.60706703  0.53695872  0.09438476     0.00600
C2235       C  0.59364553  0.53169873  0.12364270    -0.11580
C2236       C  0.60131039  0.50377741  0.13902877     0.03090
C2237       C  0.62989273  0.48813549  0.12787674    -0.11000
H2238       H  0.65206332  0.54674014  0.07642361     0.08690
H2239       H  0.57232930  0.54346963  0.12982331     0.06220
H2240       H  0.63589245  0.46484770  0.13612518     0.06060
C2241       C  0.98478198  0.90127932  0.36046266     0.03100
C2242       C  0.99554506  0.87056509  0.36962475    -0.13050
C2243       C  0.98667203  0.85854497  0.40000897     0.00600
C2244       C  0.96692473  0.87643657  0.41913919    -0.11580
C2245       C  0.96360183  0.90784103  0.41333748     0.03090
C2246       C  0.96730305  0.91846375  0.38261211    -0.11000
H2247       H  0.01131941  0.85743818  0.35462791     0.08690
H2248       H  0.95984971  0.86802863  0.44217234     0.06220
H2249       H  0.96044458  0.94242612  0.37742406     0.06060
C2250       C  0.60174014  0.48490077  0.35036821     0.03100
C2251       C  0.58387067  0.47560248  0.37621378    -0.13050
C2252       C  0.59057071  0.49016581  0.40435720     0.00600
C2253       C  0.61681067  0.50905086  0.40772785    -0.11580
C2254       C  0.64215986  0.50148012  0.38962678     0.03090
C2255       C  0.63449825  0.49340983  0.35719828    -0.11000
H2256       H  0.56162765  0.46283556  0.37349094     0.08690
H2257       H  0.62001603  0.52275778  0.42908371     0.06220
H2258       H  0.65221682  0.49406041  0.33895316     0.06060
C2259       C  0.49029766  0.60172101  0.35169124     0.03100
C2260       C  0.48805029  0.58344674  0.37857859    -0.13050
C2261       C  0.50440857  0.59299846  0.40479702     0.00600
C2262       C  0.51782856  0.62219786  0.40673890    -0.11580
C2263       C  0.50442170  0.64530252  0.38874207     0.03090
C2264       C  0.49414917  0.63554265  0.35740683    -0.11000
H2265       H  0.47723878  0.56002386  0.37822182     0.08690
H2266       H  0.53018186  0.62819696  0.42815485     0.06220
H2267       H  0.48913695  0.65263814  0.33933807     0.06060
C2268       C  0.89758855  0.99939113  0.35797431     0.03100
C2269       C  0.91533565  0.00241508  0.38537491    -0.13050
C2270       C  0.90314307  0.01724658  0.41181291     0.00600
C2271       C  0.87385723  0.02977213  0.41081839    -0.11580
C2272       C  0.85250144  0.01385437  0.39140006     0.03090
C2273       C  0.86397653  0.00115672  0.36205693    -0.11000
H2274       H  0.93949626  0.99445847  0.38602258     0.08690
H2275       H  0.86590821  0.04311394  0.43117583     0.06220
H2276       H  0.84791680  0.99218046  0.34423996     0.06060
O2277       O  0.79571109  0.59222381  0.49109569    -0.75320
O2278       O  0.83067054  0.55205069  0.48910373    -0.54230
C2279       C  0.82951078  0.57728947  0.99759546     0.78410
O2280       O  0.70147947  0.48970886  0.08990929    -0.59920
O2281       O  0.66420174  0.49223627  0.05092806    -0.52950
C2282       C  0.67274251  0.49173545  0.08055820     0.70420
O2283       O  0.80747991  0.99165831  0.08390572    -0.74480
O2284       O  0.84122309  0.99475877  0.04222066    -0.55040
C2285       C  0.83408443  0.49404144  0.07352508     0.76420
O2286       O  0.69660079  0.58654909  0.99977062    -0.59620
O2287       O  0.66005462  0.54623457  0.99868096    -0.52740
C2288       C  0.66786496  0.57619983  0.99858251     0.73020
Zr2289     Zr  0.74874179  0.56128263  0.99766626     2.54710
O2290       O  0.75044259  0.59773696  0.04212754    -0.80190
O2291       O  0.73789445  0.60080564  0.45704117    -0.93610
Zr2292     Zr  0.75265199  0.99025003  0.06176181     2.64680
O2293       O  0.75408522  0.53599917  0.09977004    -0.98560
O2294       O  0.75457261  0.94649335  0.09859698    -0.80620
O2295       O  0.78060487  0.52752858  0.02884991    -0.83980
O2296       O  0.71977568  0.52656928  0.03091798    -2.18690
O2297       O  0.69859185  0.49780175  0.39827259    -0.67370
O2298       O  0.66589814  0.49435001  0.44051149    -0.51940
C2299       C  0.67130431  0.99755714  0.41100791     0.71400
O2300       O  0.80552316  0.90536122  0.49143442    -0.60280
O2301       O  0.83991855  0.94759692  0.49215766    -0.52250
C2302       C  0.83327711  0.91766659  0.49409550     0.73200
O2303       O  0.70124729  0.89783953  0.99727850    -0.71670
O2304       O  0.66632903  0.93836529  0.99910915    -0.50350
C2305       C  0.67547486  0.90700306  0.49991775     0.74590
O2306       O  0.79720465  0.00419546  0.39968129    -0.67000
O2307       O  0.83217866  0.99723890  0.43971871    -0.54200
C2308       C  0.82523365  0.00300303  0.41054441     0.72970
Zr2309     Zr  0.74818027  0.99695965  0.42784204     2.77540
O2310       O  0.75065187  0.95245186  0.39139347    -0.97750
O2311       O  0.74505782  0.54041554  0.39055983    -0.78570
Zr2312     Zr  0.75106932  0.92671327  0.99142008     2.70070
O2313       O  0.75135647  0.89305681  0.44385067    -0.79820
O2314       O  0.75552105  0.88752956  0.03291732    -0.98900
Zr2315     Zr  0.81046795  0.99700718  0.49287868     2.21500
Zr2316     Zr  0.68775727  0.49455408  0.99678040     2.11130
O2317       O  0.71903005  0.96064090  0.45980717    -2.47590
O2318       O  0.78135648  0.96349524  0.45790309    -0.79610
O2319       O  0.71707199  0.52727722  0.46304297    -0.71810
O2320       O  0.78194387  0.95934953  0.02573052    -2.32770
O2321       O  0.77679041  0.53059530  0.46163879    -2.28970
O2322       O  0.72152551  0.95834212  0.02698657    -0.73570
H2323       H  0.70663436  0.53903825  0.04458499     0.78430
H2324       H  0.79626503  0.94647673  0.03761249     0.79520
H2325       H  0.70531319  0.94761062  0.44683819     0.81740
H2326       H  0.78921181  0.54461338  0.44863745     0.79350
H2327       H  0.77028259  0.93190221  0.08963210     0.42380
H2328       H  0.73843514  0.89249947  0.04792155     0.41350
H2329       H  0.77059009  0.89893999  0.43196401     0.41030
H2330       H  0.73023305  0.94109899  0.39376421     0.38970
H2331       H  0.73247846  0.55655717  0.40163272     0.42100
H2332       H  0.75532035  0.59787520  0.44188971     0.36880
H2333       H  0.76739733  0.58966979  0.05582712     0.43000
H2334       H  0.73407230  0.54739711  0.09678718     0.39410
H2335       H  0.74953093  0.96212490  0.37029401     0.44330
H2336       H  0.74267760  0.62130928  0.46745022     0.43060
H2337       H  0.75184773  0.52575760  0.12052560     0.43190
H2338       H  0.74899740  0.86720656  0.02308076     0.43550
O2339       O  0.58679804  0.69122016  0.50317120    -0.75320
O2340       O  0.54483135  0.65780036  0.49400756    -0.54230
C2341       C  0.57801334  0.66545881  0.99743958     0.78410
O2342       O  0.50022455  0.80024384  0.08735750    -0.59920
O2343       O  0.50463078  0.83628727  0.04774649    -0.52950
C2344       C  0.50485753  0.82872695  0.07728428     0.70420
O2345       O  0.98194414  0.69532518  0.08591464    -0.74480
O2346       O  0.99311954  0.65964938  0.04691046    -0.55040
C2347       C  0.49293603  0.66640700  0.07517462     0.76420
O2348       O  0.59482608  0.79476948  0.99243853    -0.59620
O2349       O  0.55367648  0.82833680  0.99250107    -0.52740
C2350       C  0.58364162  0.82264553  0.99061051     0.73020
Zr2351     Zr  0.56456099  0.74557654  0.99839672     2.54710
O2352       O  0.59761230  0.74976209  0.04512800    -0.80190
O2353       O  0.60473027  0.73824777  0.45932340    -0.93610
Zr2354     Zr  0.98941215  0.74699243  0.06169674     2.64680
O2355       O  0.53304645  0.74183183  0.10336329    -0.98560
O2356       O  0.94173755  0.75211111  0.09303188    -0.80620
O2357       O  0.52799748  0.71614432  0.02934758    -0.83980
O2358       O  0.53111630  0.77670206  0.03103559    -2.18690
O2359       O  0.49733680  0.80278976  0.40567179    -0.67370
O2360       O  0.50641936  0.83647769  0.44699579    -0.51940
C2361       C  0.99897642  0.83084757  0.41736419     0.71400
O2362       O  0.89864257  0.70533574  0.49210653    -0.60280
O2363       O  0.93698300  0.66775230  0.49264339    -0.52250
C2364       C  0.90745147  0.67664597  0.49394406     0.73200
O2365       O  0.90702411  0.80120206  0.99296886    -0.71670
O2366       O  0.94877698  0.83571025  0.99754372    -0.50350
C2367       C  0.92203233  0.83406858  0.50079077     0.74590
O2368       O  0.00083565  0.70136163  0.39893592    -0.67000
O2369       O  0.99212586  0.66682625  0.43915691    -0.54200
C2370       C  0.99716572  0.67331461  0.40941952     0.72970
Zr2371     Zr  0.50055225  0.75039922  0.42927270     2.77540
O2372       O  0.95922394  0.74731448  0.38856342    -0.97750
O2373       O  0.54704683  0.75482902  0.39599329    -0.78570
Zr2374     Zr  0.93078613  0.74853922  0.98818660     2.70070
O2375       O  0.89734343  0.75677552  0.44495335    -0.79820
O2376       O  0.88791797  0.74515256  0.02611069    -0.98900
Zr2377     Zr  0.99281002  0.68758871  0.49427813     2.21500
Zr2378     Zr  0.49966281  0.80794796  0.99720781     2.11130
O2379       O  0.96691533  0.78230931  0.46069817    -2.47590
O2380       O  0.96348698  0.72072234  0.45994122    -0.79610
O2381       O  0.53449920  0.77723491  0.46532599    -0.71810
O2382       O  0.95997508  0.71711245  0.02393286    -2.32770
O2383       O  0.52995919  0.71692651  0.46360717    -2.28970
O2384       O  0.96045243  0.77820703  0.02607923    -0.73570
H2385       H  0.54436263  0.78980144  0.04439465     0.78430
H2386       H  0.94552247  0.70342670  0.03510157     0.79520
H2387       H  0.95514761  0.79706256  0.44821776     0.81740
H2388       H  0.54244935  0.70278595  0.45099423     0.79350
H2389       H  0.92783473  0.73448413  0.08591386     0.42380
H2390       H  0.89243930  0.76223163  0.04154850     0.41350
H2391       H  0.90220178  0.73756173  0.43258676     0.41030
H2392       H  0.94465285  0.76465507  0.39376027     0.38970
H2393       H  0.56147477  0.76947314  0.40743575     0.42100
H2394       H  0.59879494  0.71884618  0.44748959     0.36880
H2395       H  0.58959365  0.73289489  0.05915666     0.43000
H2396       H  0.54863545  0.75904568  0.09971168     0.39410
H2397       H  0.96982375  0.75422984  0.36900606     0.44330
H2398       H  0.62404054  0.73259304  0.47102535     0.43060
H2399       H  0.52189980  0.74816583  0.12278562     0.43190
H2400       H  0.86905493  0.75229226  0.01454238     0.43550
C2401       C  0.64274401  0.59873883  0.98779262     0.03100
C2402       C  0.63113074  0.59022613  0.95804591    -0.13050
C2403       C  0.60011773  0.59762720  0.95188770     0.00600
C2404       C  0.59457063  0.62923312  0.95715244    -0.11580
C2405       C  0.60121844  0.64049890  0.98729697     0.03090
C2406       C  0.62673076  0.62464994  0.00392122    -0.11000
H2407       H  0.64181420  0.57112869  0.94511276     0.08690
H2408       H  0.57891001  0.64180105  0.94199803     0.06220
H2409       H  0.63300289  0.63129857  0.02773124     0.06060
C2410       C  0.64948437  0.88432918  0.50908032     0.03100
C2411       C  0.62557878  0.90004335  0.52462292    -0.13050
C2412       C  0.59670848  0.89946338  0.50971443     0.00600
C2413       C  0.59022479  0.87723733  0.48674403    -0.11580
C2414       C  0.60739516  0.84973064  0.48771081     0.03090
C2415       C  0.64042876  0.85445079  0.49471477    -0.11000
H2416       H  0.63113538  0.91923052  0.54087630     0.08690
H2417       H  0.56815546  0.87822327  0.47378086     0.06220
H2418       H  0.65766952  0.83676535  0.48887295     0.06060
C2419       C  0.85238491  0.60468900  0.48957343     0.03100
C2420       C  0.87980752  0.58899838  0.49562512    -0.13050
C2421       C  0.90126077  0.60192568  0.51675774     0.00600
C2422       C  0.89940619  0.63263454  0.52618722    -0.11580
C2423       C  0.88425577  0.65195883  0.50497768     0.03090
C2424       C  0.85607789  0.63879763  0.48983211    -0.11000
H2425       H  0.88305608  0.56508115  0.48698378     0.08690
H2426       H  0.91763203  0.64198976  0.54182082     0.06220
H2427       H  0.83921548  0.65372941  0.47820824     0.06060
C2428       C  0.90086245  0.85978016  0.51189128     0.03100
C2429       C  0.90970304  0.87419794  0.54035851    -0.13050
C2430       C  0.89829294  0.90423197  0.54747882     0.00600
C2431       C  0.86821899  0.91080171  0.53758966    -0.11580
C2432       C  0.85803050  0.89835378  0.50875021     0.03090
C2433       C  0.87431381  0.87211999  0.49537819    -0.11000
H2434       H  0.93098345  0.86647002  0.55210060     0.08690
H2435       H  0.85715026  0.93175126  0.54712211     0.06220
H2436       H  0.86749674  0.86264245  0.47264458     0.06060
O2437       O  0.02749796  0.59700300  0.55598897    -0.86520
O2438       O  0.51925376  0.91787209  0.56163692    -0.86680
O2439       O  0.96635998  0.01865089  0.61066423    -0.88350
O2440       O  0.56377509  0.52639189  0.59319147    -0.87110
O2441       O  0.59891786  0.52260310  0.55263592    -0.86700
O2442       O  0.95228796  0.03761712  0.56618757    -0.88070
O2443       O  0.03254946  0.95770938  0.59477301    -0.86550
O2444       O  0.02991630  0.55999002  0.59513717    -0.86130
Zr2445     Zr  0.01130560  0.00944276  0.57688324     2.84310
O2446       O  0.53655391  0.97390174  0.54354043    -1.08110
O2447       O  0.98027837  0.53610398  0.54501560    -1.08840
C2448       C  0.03446481  0.58812243  0.58421329     1.06590
C2449       C  0.03227394  0.92857042  0.58455141     1.06530
C2450       C  0.94452569  0.02980520  0.59353804     1.09520
C2451       C  0.59123183  0.53062367  0.58116135     1.07290
H2452       H  0.96032837  0.96770659  0.56980132     0.32850
O2453       O  0.97090994  0.97843375  0.55278398    -1.29060
H2454       H  0.55579194  0.55290776  0.54363126     0.32530
O2455       O  0.53973927  0.53767309  0.53852078    -1.30740
O2456       O  0.47718842  0.92091330  0.96668764    -0.86510
O2457       O  0.99638808  0.58975722  0.95862486    -0.88010
O2458       O  0.91608243  0.95583654  0.03357995    -0.86590
O2459       O  0.58703160  0.95195997  0.51758704    -0.86640
O2460       O  0.58692546  0.54654414  0.47745584    -0.86350
O2461       O  0.91139794  0.55646297  0.02968922    -0.86160
O2462       O  0.95117382  0.02966624  0.93072805    -0.86530
O2463       O  0.53797137  0.49873987  0.91503612    -0.85990
O2464       O  0.91475504  0.01068710  0.96529293    -0.87050
O2465       O  0.58056774  0.49940590  0.94829322    -0.86210
O2466       O  0.95337558  0.91711201  0.02982449    -0.86610
O2467       O  0.95101942  0.59434221  0.02985302    -0.86330
O2468       O  0.55138229  0.58656034  0.48061380    -0.85980
O2469       O  0.54590399  0.91630398  0.51125918    -0.86390
O2470       O  0.47181041  0.96007596  0.93056279    -0.86690
O2471       O  0.51755271  0.54932741  0.92737783    -0.88020
Zr2472     Zr  0.49449588  0.94557172  0.01688235     2.83100
Zr2473     Zr  0.00615752  0.56863847  0.51102357     2.83500
Zr2474     Zr  0.94136875  0.00533633  0.01745778     2.84090
Zr2475     Zr  0.56653034  0.50267816  0.50837373     2.83360
Zr2476     Zr  0.49473152  0.50498136  0.94987728     2.84220
O2477       O  0.53082703  0.53362867  0.97735512    -1.08600
O2478       O  0.96526798  0.97218672  0.98254528    -1.08100
C2479       C  0.46986705  0.93126688  0.93889589     1.06560
C2480       C  0.50862191  0.57732672  0.93161825     1.09180
C2481       C  0.92532407  0.92683437  0.03575644     1.06740
C2482       C  0.57513150  0.92417163  0.51390050     1.07100
C2483       C  0.57711020  0.57437873  0.47017247     1.06680
C2484       C  0.92192854  0.58461169  0.03449195     1.06230
C2485       C  0.92363435  0.02090545  0.93785931     1.06660
C2486       C  0.56750634  0.49901123  0.92148053     1.06170
H2487       H  0.95171909  0.55575638  0.97712610     0.32850
O2488       O  0.96528970  0.54030421  0.98654795    -1.29690
H2489       H  0.53548134  0.95689632  0.96806216     0.32870
O2490       O  0.52635012  0.97211065  0.98223744    -1.31080
C2491       C  0.50252145  0.60289614  0.64182303     0.03100
C2492       C  0.53525717  0.60379177  0.63708981    -0.13050
C2493       C  0.54470178  0.61263924  0.60718295     0.00600
C2494       C  0.53358391  0.64179505  0.59862304    -0.11580
C2495       C  0.50079735  0.64526024  0.60064004     0.03090
C2496       C  0.48403034  0.62465961  0.62277669    -0.11000
H2497       H  0.55010862  0.58782152  0.65008583     0.08690
H2498       H  0.54704489  0.65523929  0.58147276     0.06220
H2499       H  0.45858453  0.62496238  0.62445097     0.06060
O2500       O  0.98868691  0.58753643  0.69354290    -0.75320
O2501       O  0.99530710  0.54775169  0.65770016    -0.54230
C2502       C  0.49245240  0.57747516  0.66481761     0.78410
O2503       O  0.59514105  0.49179744  0.79117529    -0.59920
O2504       O  0.55420764  0.49339192  0.82528212    -0.52950
C2505       C  0.58421675  0.49040099  0.81912582     0.70420
O2506       O  0.58894227  0.99195717  0.69409516    -0.74480
O2507       O  0.54953833  0.99521983  0.65749057    -0.55040
C2508       C  0.57954955  0.49327594  0.66397727     0.76420
O2509       O  0.49196852  0.59126280  0.79412284    -0.59620
O2510       O  0.49684879  0.55031264  0.82791939    -0.52740
C2511       C  0.49333242  0.58028642  0.82215892     0.72980
Zr2512     Zr  0.99434710  0.56252217  0.74457052     2.54710
O2513       O  0.53761573  0.60035720  0.74138990    -0.80190
O2514       O  0.94984653  0.59830828  0.74678408    -0.93610
Zr2515     Zr  0.56329717  0.99723956  0.74501343     2.64680
O2516       O  0.59702709  0.54450956  0.74060974    -0.98560
O2517       O  0.60420308  0.95746949  0.74330448    -0.80620
O2518       O  0.52874330  0.52909866  0.71324930    -0.83980
O2519       O  0.53137599  0.53130961  0.77363103    -2.18690
O2520       O  0.90440212  0.49401291  0.80106760    -0.67370
O2521       O  0.94761291  0.49735354  0.83257709    -0.51940
C2522       C  0.91837334  0.99437572  0.82802356     0.71400
O2523       O  0.99990364  0.90255449  0.69675663    -0.60280
O2524       O  0.99582320  0.94150737  0.65955644    -0.52250
C2525       C  0.99993543  0.91240711  0.66824114     0.73200
O2526       O  0.49285573  0.90733662  0.80393565    -0.71670
O2527       O  0.49770026  0.95026717  0.83647622    -0.50350
C2528       C  0.99563290  0.91893416  0.83014974     0.74590
O2529       O  0.90138964  0.99191004  0.69879662    -0.67000
O2530       O  0.94079453  0.98985961  0.66204349    -0.54200
C2531       C  0.91119171  0.99208291  0.67037121     0.72970
Zr2532     Zr  0.92926345  0.49283206  0.74842226     2.77540
O2533       O  0.89528859  0.94597138  0.74798305    -0.97750
O2534       O  0.89057457  0.53479747  0.74876402    -0.78570
Zr2535     Zr  0.49693597  0.92888262  0.74934914     2.70070
O2536       O  0.95680012  0.88802679  0.74688915    -0.79820
O2537       O  0.54102084  0.89285231  0.75333156    -0.98900
Zr2538     Zr  0.99541847  0.99449026  0.68393540     2.21500
Zr2539     Zr  0.49983112  0.49701847  0.80459441     2.11130
O2540       O  0.96517116  0.96156627  0.77800756    -2.47590
O2541       O  0.96407747  0.96047570  0.71696932    -0.79610
O2542       O  0.96258509  0.52900335  0.77638056    -0.71810
O2543       O  0.52896286  0.96241043  0.71669149    -2.32770
O2544       O  0.96138020  0.52644160  0.71581761    -2.28970
O2545       O  0.53127376  0.96401663  0.77699440    -0.73570
H2546       H  0.54430285  0.54497623  0.78676134     0.78430
H2547       H  0.54191019  0.94926680  0.70349539     0.79520
H2548       H  0.95300484  0.94893402  0.79253710     0.81740
H2549       H  0.94776908  0.53844383  0.70229847     0.79350
H2550       H  0.59275852  0.93742463  0.73868770     0.42380
H2551       H  0.55227863  0.89945342  0.77274838     0.41350
H2552       H  0.94079222  0.89623585  0.73218328     0.41030
H2553       H  0.90079253  0.93434166  0.76731228     0.38970
H2554       H  0.89927629  0.55080799  0.76358818     0.42100
H2555       H  0.93586521  0.59169401  0.72920865     0.36880
H2556       H  0.54993423  0.59399586  0.72269879     0.43000
H2557       H  0.59859560  0.55213173  0.76260684     0.39410
H2558       H  0.87405479  0.95445270  0.75220970     0.44330
H2559       H  0.95858020  0.61910236  0.74035720     0.43060
H2560       H  0.61835681  0.53663770  0.73571576     0.43190
H2561       H  0.53117488  0.87220964  0.75859670     0.43550
C2562       C  0.89039086  0.50513722  0.64584003     0.03100
C2563       C  0.90512973  0.53188780  0.63415599    -0.13050
C2564       C  0.91074817  0.53066261  0.60272069     0.00600
C2565       C  0.88726869  0.51811790  0.58280605    -0.11580
C2566       C  0.86126197  0.50161979  0.59521814     0.03090
C2567       C  0.86513071  0.49111649  0.62730405    -0.11000
H2568       H  0.92234437  0.54464988  0.64859261     0.08690
H2569       H  0.89040007  0.51824782  0.55779561     0.06220
H2570       H  0.85046796  0.47229311  0.63664356     0.06060
C2571       C  0.51777930  0.85485523  0.60048950     0.03100
C2572       C  0.54496008  0.87206623  0.59152083    -0.13050
C2573       C  0.54942507  0.90238581  0.60425796     0.00600
C2574       C  0.54350053  0.90490179  0.63574131    -0.11580
C2575       C  0.51487428  0.89172035  0.64578182     0.03090
C2576       C  0.50136726  0.86572904  0.62806676    -0.11000
H2577       H  0.55603015  0.86684232  0.56915167     0.08690
H2578       H  0.55336738  0.92541411  0.64790883     0.06220
H2579       H  0.47863945  0.85572237  0.63436037     0.06060
C2580       C  0.64841039  0.49882696  0.60060256     0.03100
C2581       C  0.64451511  0.53132742  0.59625484    -0.13050
C2582       C  0.61534536  0.54247917  0.60377578     0.00600
C2583       C  0.60643704  0.53498774  0.63436251    -0.11580
C2584       C  0.60519596  0.50246590  0.64074090     0.03090
C2585       C  0.62745813  0.48306065  0.62312973    -0.11000
H2586       H  0.65790022  0.54396199  0.57846411     0.08690
H2587       H  0.59034097  0.55058494  0.64637822     0.06220
H2588       H  0.62778910  0.45768825  0.62599930     0.06060
C2589       C  0.98569902  0.90002585  0.85853675     0.03100
C2590       C  0.99749516  0.87018227  0.86939692    -0.13050
C2591       C  0.98694316  0.85830729  0.89937367     0.00600
C2592       C  0.96489752  0.87582619  0.91623395    -0.11580
C2593       C  0.96106198  0.90714271  0.90930473     0.03090
C2594       C  0.96533260  0.91660173  0.87846952    -0.11000
H2595       H  0.01510231  0.85768012  0.85600986     0.08690
H2596       H  0.95666900  0.86783291  0.93902889     0.06220
H2597       H  0.95764229  0.94006484  0.87214959     0.06060
C2598       C  0.60499034  0.48399735  0.84750336     0.03100
C2599       C  0.58617327  0.47773550  0.87314140    -0.13050
C2600       C  0.58948381  0.49881649  0.89730958     0.00600
C2601       C  0.61764489  0.51494556  0.90226987    -0.11580
C2602       C  0.64368149  0.50319734  0.88766086     0.03090
C2603       C  0.63761552  0.49246240  0.85546969    -0.11000
H2604       H  0.56452538  0.46379482  0.87111948     0.08690
H2605       H  0.62039418  0.52981999  0.92278227     0.06220
H2606       H  0.65638871  0.49057749  0.83841752     0.06060
C2607       C  0.49228170  0.60145687  0.85115948     0.03100
C2608       C  0.49185247  0.58392117  0.87859999    -0.13050
C2609       C  0.50797257  0.59529616  0.90428251     0.00600
C2610       C  0.52145611  0.62437352  0.90439131    -0.11580
C2611       C  0.50654319  0.64656747  0.88649193     0.03090
C2612       C  0.49504817  0.63557678  0.85591592    -0.11000
H2613       H  0.48213613  0.56005959  0.87934225     0.08690
H2614       H  0.53432292  0.63116892  0.92519259     0.06220
H2615       H  0.48839867  0.65197701  0.83774486     0.06060
C2616       C  0.89884994  0.99792967  0.85767127     0.03100
C2617       C  0.91685764  0.00355141  0.88451174    -0.13050
C2618       C  0.90410942  0.01804597  0.91074362     0.00600
C2619       C  0.87370353  0.02747121  0.91066604    -0.11580
C2620       C  0.85313650  0.01008513  0.89162402     0.03090
C2621       C  0.86512535  0.99752030  0.86233166    -0.11000
H2622       H  0.94161628  0.99756985  0.88507678     0.08690
H2623       H  0.86527332  0.04044229  0.93106835     0.06220
H2624       H  0.84943862  0.98703582  0.84498633     0.06060
O2625       O  0.80088239  0.58698264  0.99692507    -0.75320
O2626       O  0.83750835  0.54767951  0.99597241    -0.54230
C2627       C  0.82404746  0.58212531  0.48875073     0.78410
O2628       O  0.69982283  0.48419139  0.58566181    -0.59920
O2629       O  0.66197279  0.48788994  0.54729992    -0.52950
C2630       C  0.67089727  0.48628084  0.57662927     0.70420
O2631       O  0.80617845  0.99095719  0.58426756    -0.74480
O2632       O  0.84013820  0.99638428  0.54299426    -0.55040
C2633       C  0.83349928  0.49592506  0.57281322     0.76420
O2634       O  0.69388020  0.58479703  0.50176180    -0.59620
O2635       O  0.65931425  0.54303136  0.49659783    -0.52740
C2636       C  0.66576679  0.57341656  0.49847831     0.73020
Zr2637     Zr  0.74643284  0.56132795  0.49751243     2.54710
O2638       O  0.75007620  0.59534139  0.54376866    -0.80190
O2639       O  0.74611653  0.60068578  0.95627759    -0.93610
Zr2640     Zr  0.75227183  0.98990991  0.56094821     2.64680
O2641       O  0.75042297  0.53277286  0.59979816    -0.98560
O2642       O  0.75461952  0.94561396  0.59710468    -0.80620
O2643       O  0.77936171  0.52806020  0.52849759    -0.83980
O2644       O  0.71866188  0.52442268  0.52976356    -2.18690
O2645       O  0.69892408  0.49651379  0.89972032    -0.67370
O2646       O  0.66472448  0.49821853  0.94108173    -0.51940
C2647       C  0.67062120  0.99750880  0.91210627     0.71400
O2648       O  0.80339141  0.90311743  0.99228256    -0.60280
O2649       O  0.83812860  0.94499046  0.99127526    -0.52250
C2650       C  0.83137094  0.91510936  0.99372674     0.73200
O2651       O  0.70366345  0.89720221  0.49624116    -0.71670
O2652       O  0.66757489  0.93672959  0.49848449    -0.50350
C2653       C  0.67330660  0.90846407  0.00056850     0.74590
O2654       O  0.79749320  0.00117877  0.89992049    -0.67000
O2655       O  0.83237795  0.99447840  0.94007534    -0.54200
C2656       C  0.82556650  0.99966637  0.91076977     0.72970
Zr2657     Zr  0.74796927  0.99605017  0.92819845     2.77540
O2658       O  0.74899380  0.95169355  0.89148027    -0.97750
O2659       O  0.74545068  0.53948121  0.89207791    -0.78570
Zr2660     Zr  0.75258558  0.92735808  0.48996087     2.70070
O2661       O  0.74881568  0.89139704  0.94610056    -0.79820
O2662       O  0.75866899  0.88704515  0.53015122    -0.98900
Zr2663     Zr  0.81020800  0.99530509  0.99305061     2.21500
Zr2664     Zr  0.68839662  0.49132155  0.49507809     2.11130
O2665       O  0.71843908  0.96050327  0.96077073    -2.47590
O2666       O  0.78019833  0.96204663  0.95869739    -0.79610
O2667       O  0.71784605  0.52839796  0.96373685    -0.71810
O2668       O  0.78244125  0.96022019  0.52479150    -2.32770
O2669       O  0.77867793  0.52949086  0.96239647    -2.28970
O2670       O  0.72205146  0.95781598  0.52571747    -0.73570
H2671       H  0.70484135  0.53592539  0.54358439     0.78430
H2672       H  0.79679468  0.94747436  0.53675763     0.79520
H2673       H  0.70441189  0.94763474  0.94797338     0.81740
H2674       H  0.79198966  0.54304790  0.94975738     0.79350
H2675       H  0.77066286  0.93143717  0.58806641     0.42380
H2676       H  0.74182046  0.89120720  0.54566325     0.41350
H2677       H  0.76688733  0.89806591  0.93289120     0.41030
H2678       H  0.72868868  0.94032884  0.89460904     0.38970
H2679       H  0.73375045  0.55612937  0.90338027     0.42100
H2680       H  0.76478435  0.59678519  0.94293780     0.36880
H2681       H  0.76880018  0.58782566  0.55532428     0.43000
H2682       H  0.72979301  0.54304050  0.59685061     0.39410
H2683       H  0.74704498  0.96144514  0.87048053     0.44330
H2684       H  0.75089254  0.62101609  0.96702074     0.43060
H2685       H  0.74840231  0.52155402  0.62006788     0.43190
H2686       H  0.75237024  0.86688035  0.51985852     0.43550
O2687       O  0.58882994  0.69347639  0.00273216    -0.75320
O2688       O  0.54794698  0.65882283  0.99369172    -0.54230
C2689       C  0.57526465  0.66351477  0.49755538     0.78410
O2690       O  0.50056468  0.80163504  0.58748485    -0.59920
O2691       O  0.50769221  0.83734008  0.54789970    -0.52950
C2692       C  0.50673479  0.82981988  0.57745677     0.70420
O2693       O  0.98651782  0.69695902  0.58603692    -0.74480
O2694       O  0.99091485  0.66000197  0.54668419    -0.55040
C2695       C  0.48911276  0.66819803  0.57643445     0.76420
O2696       O  0.59615903  0.79280185  0.49300726    -0.59620
O2697       O  0.55619126  0.82770642  0.49255880    -0.52740
C2698       C  0.58592303  0.82109474  0.49079052     0.73020
Zr2699     Zr  0.56424905  0.74425187  0.49945631     2.54710
O2700       O  0.59694169  0.74713962  0.54651722    -0.80190
O2701       O  0.60520849  0.74068626  0.95827120    -0.93610
Zr2702     Zr  0.99325023  0.74904325  0.56176230     2.64680
O2703       O  0.53241472  0.74256683  0.60352697    -0.98560
O2704       O  0.94793606  0.75473267  0.59630759    -0.80620
O2705       O  0.52618840  0.71623030  0.53016965    -0.83980
O2706       O  0.53171756  0.77686111  0.53154569    -2.18690
O2707       O  0.49584349  0.80357897  0.90549375    -0.67370
O2708       O  0.50212928  0.83664273  0.94769563    -0.51940
C2709       C  0.99886196  0.83100055  0.91807952     0.71400
O2710       O  0.90555106  0.69621009  0.98656090    -0.60280
O2711       O  0.94481010  0.65938589  0.98813499    -0.52250
C2712       C  0.91540984  0.66767898  0.98864772     0.73200
O2713       O  0.90953054  0.80672705  0.49545266    -0.71670
O2714       O  0.95224072  0.83984418  0.50133200    -0.50350
C2715       C  0.91883481  0.82909924  0.99742206     0.74590
O2716       O  0.00553244  0.70222574  0.89793900    -0.67000
O2717       O  0.99881336  0.66760514  0.93823294    -0.54200
C2718       C  0.00306482  0.67408022  0.90838398     0.72970
Zr2719     Zr  0.50015110  0.75068604  0.92842943     2.77540
O2720       O  0.96451758  0.74737545  0.88727925    -0.97750
O2721       O  0.54613545  0.75642080  0.89464211    -0.78570
Zr2722     Zr  0.93049504  0.75328519  0.49154611     2.70070
O2723       O  0.89787313  0.75074278  0.94132883    -0.79820
O2724       O  0.88953520  0.75354948  0.53162896    -0.98900
Zr2725     Zr  0.99621757  0.68644078  0.99393825     2.21500
Zr2726     Zr  0.50176299  0.80914342  0.49725643     2.11130
O2727       O  0.96758950  0.77985007  0.95976955    -2.47590
O2728       O  0.96727597  0.71855265  0.95824371    -0.79610
O2729       O  0.53351508  0.77797545  0.96468953    -0.71810
O2730       O  0.96015489  0.72055444  0.52595682    -2.32770
O2731       O  0.53137054  0.71768200  0.96199636    -2.28970
O2732       O  0.96354147  0.78130735  0.52765811    -0.73570
H2733       H  0.54532122  0.78952962  0.54495705     0.78430
H2734       H  0.94570577  0.70775308  0.53813079     0.79520
H2735       H  0.95578147  0.79415806  0.94681869     0.81740
H2736       H  0.54429477  0.70413389  0.94917202     0.79350
H2737       H  0.93254025  0.73854186  0.58887031     0.42380
H2738       H  0.89616295  0.77031782  0.54666830     0.41350
H2739       H  0.90519936  0.73306102  0.92799241     0.41030
H2740       H  0.94899743  0.76381977  0.89262105     0.38970
H2741       H  0.56244076  0.76661117  0.90811877     0.42100
H2742       H  0.60014447  0.72083552  0.94679858     0.36880
H2743       H  0.58842278  0.73027997  0.56026855     0.43000
H2744       H  0.54822233  0.75960468  0.59998574     0.39410
H2745       H  0.97547234  0.75553435  0.86839698     0.44330
H2746       H  0.62477918  0.73612195  0.97004395     0.43060
H2747       H  0.52141183  0.74888041  0.62303804     0.43190
H2748       H  0.87071519  0.76209049  0.52099460     0.43550
C2749       C  0.64037462  0.59601174  0.48783992     0.03100
C2750       C  0.62945495  0.58826576  0.45763335    -0.13050
C2751       C  0.59840585  0.59526084  0.45156235     0.00600
C2752       C  0.59235570  0.62690459  0.45693140    -0.11580
C2753       C  0.59838838  0.63800187  0.48736068     0.03090
C2754       C  0.62403554  0.62196356  0.50400639    -0.11000
H2755       H  0.64036428  0.56955731  0.44425053     0.08690
H2756       H  0.57653343  0.63925158  0.44168523     0.06220
H2757       H  0.63013000  0.62845739  0.52790126     0.06060
C2758       C  0.64632321  0.88668944  0.00878272     0.03100
C2759       C  0.62229379  0.90300478  0.02351050    -0.13050
C2760       C  0.59339769  0.90187905  0.00869634     0.00600
C2761       C  0.58678969  0.87882401  0.98663968    -0.11580
C2762       C  0.60442300  0.85164968  0.98789278     0.03090
C2763       C  0.63740574  0.85662242  0.99488990    -0.11000
H2764       H  0.62773071  0.92251735  0.03941473     0.08690
H2765       H  0.56455366  0.87919888  0.97392026     0.06220
H2766       H  0.65472423  0.83889836  0.98940745     0.06060
C2767       C  0.85435643  0.60088453  0.00750250     0.03100
C2768       C  0.86668020  0.59584794  0.03762422    -0.13050
C2769       C  0.89722964  0.60708949  0.04359321     0.00600
C2770       C  0.90342793  0.63713863  0.03359135    -0.11580
C2771       C  0.89367620  0.64435619  0.00310958     0.03090
C2772       C  0.86853741  0.62577942  0.98908687    -0.11000
H2773       H  0.85806765  0.57578643  0.05106337     0.08690
H2774       H  0.92356951  0.64941094  0.04401347     0.06220
H2775       H  0.86124648  0.62970939  0.96505750     0.06060
C2776       C  0.89825180  0.85514876  0.00887757     0.03100
C2777       C  0.91077011  0.87135398  0.03499363    -0.13050
C2778       C  0.90143267  0.90202718  0.04120001     0.00600
C2779       C  0.87112027  0.90991109  0.03321512    -0.11580
C2780       C  0.85706684  0.89566601  0.00686864     0.03090
C2781       C  0.87065669  0.86752980  0.99406842    -0.11000
H2782       H  0.93268150  0.86357567  0.04547745     0.08690
H2783       H  0.86207238  0.93200512  0.04234867     0.06220
H2784       H  0.86120486  0.85677191  0.97285783     0.06060
loop_ 
_geom_bond_atom_site_label_1 
_geom_bond_atom_site_label_2 
_geom_bond_distance 
_geom_bond_site_symmetry_2 
_ccdc_geom_bond_type 
O1          Zr37   2.425       .  S
O1           C12   1.297       .  A
O2         Zr384   2.344   1_455  S
O2         C1405   1.280       .  A
O3           Zr9   2.441       .  S
O3           C14   1.277       .  A
O4        Zr2097   2.380   1_565  S
O4           C15   1.274   1_565  A
O5          Zr39   2.410       .  S
O5           C15   1.280       .  A
O6         Zr386   2.367       .  S
O6           C14   1.252       .  A
O7           Zr9   2.448       .  S
O7           C13   1.299       .  A
O8         Zr705   2.412       .  S
O8           C12   1.292       .  A
Zr9        O2092   2.381       .  S
Zr9         O704   2.432       .  S
Zr9          O17   2.377       .  S
Zr9        O1402   2.332       .  S
Zr9         O707   2.319       .  S
Zr9        O2107   2.352       .  S
O10       Zr1401   2.279       .  S
O10        Zr384   2.339   1_455  S
O10        Zr735   2.293       .  S
O11         Zr37   2.270       .  S
O11        Zr705   2.325       .  S
O11       Zr1082   2.324       .  S
C12        C1449   1.483       .  S
C13        O1394   1.286       .  A
C13        C1529   1.474       .  S
C14         C824   1.459       .  S
C15         C146   1.480       .  S
H16          O17   0.965       .  S
O17       Zr1776   2.341       .  S
O17        Zr386   2.379       .  S
H18          O19   0.957       .  S
O19         Zr39   2.318       .  S
O19       Zr2097   2.352       .  S
O19       Zr1429   2.321       .  S
O20         Zr36   2.495       .  S
O20          C43   1.305       .  A
O21        Zr385   2.386       .  S
O21        C1436   1.285       .  A
O22         Zr38   2.450       .  S
O22          C45   1.301       .  A
O23        Zr735   2.370       .  S
O23          C46   1.282       .  A
O24         Zr39   2.418   1_556  S
O24          C47   1.289       .  A
O25        Zr734   2.327       .  S
O25          C48   1.270       .  A
O26       Zr2128   2.278       .  S
O26          C49   1.261       .  A
O27         Zr40   2.366   1_465  S
O27          C50   1.277       .  A
O28         Zr38   2.503       .  S
O28          C49   1.304       .  A
O29        Zr387   2.343   1_565  S
O29          C50   1.279       .  A
O30       Zr1428   2.372       .  S
O30          C45   1.284       .  A
O31        Zr385   2.441       .  S
O31          C48   1.294       .  A
O32       Zr1429   2.446   1_556  S
O32          C47   1.297       .  A
O33        Zr384   2.362   1_455  S
O33          C46   1.282       .  A
O34        Zr736   2.325       .  S
O34          C43   1.269       .  A
O35         Zr40   2.296   1_455  S
O35          C44   1.264       .  A
Zr36        O350   2.338   1_655  S
Zr36       O1422   2.368       .  S
Zr36        O381   2.361   1_655  S
Zr36         O54   2.295   1_655  S
Zr36        O358   2.338   1_655  S
Zr36       O1757   2.335       .  S
Zr36       O1434   2.285       .  S
Zr37        O369   2.408   1_554  S
Zr37        O379   2.505       .  S
Zr37       O1424   2.462   1_554  S
Zr37       O1411   2.307       .  S
Zr37       O1781   2.292   1_554  S
Zr37        O400   2.315   1_554  S
Zr38        O354   2.389       .  S
Zr38        O721   2.299       .  S
Zr38         O42   2.288       .  S
Zr38       O1055   2.320       .  S
Zr38        O365   2.350       .  S
Zr38        O748   2.312       .  S
Zr39        O719   2.426   1_544  S
Zr39        O377   2.287   1_544  S
Zr39        O706   2.308   1_545  S
Zr39        O389   2.279   1_554  S
Zr39       O1098   2.325   1_544  S
Zr40       O2114   2.275       .  S
Zr40        O730   2.337   1_545  S
Zr40         O41   2.250   1_655  S
Zr40       O2130   2.293   1_545  S
Zr40        O750   2.281   1_645  S
Zr40       O1444   2.336       .  S
O41       Zr1777   2.293       .  S
O41        Zr387   2.281       .  S
O42       Zr1428   2.284       .  S
O42       Zr2128   2.289       .  S
C43        C1549   1.470       .  S
C44        O1413   1.288   1_455  A
C44         C173   1.393       .  S
C45         C342   1.469       .  S
C46         C672   1.410       .  S
C47         C315   1.490       .  S
C48         C333   1.413       .  S
C49         C182   1.431       .  S
C50         C164   1.406       .  S
H51          O52   0.964       .  S
O52        Zr385   2.313       .  S
O52        Zr734   2.318       .  S
O52       Zr1432   2.320       .  S
H53          O54   0.965       .  S
O54       Zr1083   2.355       .  S
O54        Zr736   2.282   1_455  S
C55          C66   1.510   1_455  S
C55          C56   1.398       .  A
C55          C60   1.461   1_455  A
C56          C57   1.383       .  A
C56          H61   1.081       .  S
C57        C1404   1.483       .  S
C57          C58   1.384       .  A
C58          C59   1.404       .  A
C58          H62   1.086       .  S
C59         C259   1.508   1_455  S
C59          C60   1.463   1_455  A
C60          H63   1.082       .  S
O64         Zr76   2.430       .  S
O64        C1458   1.280       .  A
O65        Zr798   2.551   1_545  S
O65        C1458   1.314       .  A
C66        O1456   1.282       .  A
C66        O1457   1.311       .  A
O67        Zr775   2.463       .  S
O67          C69   1.284       .  A
O68        Zr103   2.450   1_455  S
O68          C69   1.301       .  A
C69         C162   1.513       .  S
O70         Zr79   2.434       .  S
O70         C768   1.281       .  A
O71       Zr1494   2.566   1_455  S
O71         C768   1.319       .  A
C72         O766   1.283       .  A
C72         O767   1.316       .  A
C72         C148   1.523   1_565  S
O73       Zr1468   2.464       .  S
O73          C75   1.284       .  A
O74        Zr103   2.462   1_545  S
O74          C75   1.303       .  A
C75         C171   1.519       .  S
Zr76       O1465   2.460       .  S
Zr76        O106   2.373       .  S
Zr76        O108   2.384       .  S
Zr76       O1474   2.403       .  S
Zr76       O1475   2.399       .  S
Zr76         O78   2.438       .  S
Zr76       O1469   2.434       .  S
O77       Zr1468   2.434   1_455  S
O77         H120   0.990       .  S
O78         H119   0.990       .  S
O78         H123   0.990       .  S
Zr79        O763   2.458       .  S
Zr79        O107   2.378       .  S
Zr79        O109   2.377       .  S
Zr79        O779   2.394       .  S
Zr79        O778   2.399       .  S
Zr79         O81   2.434       .  S
Zr79        O776   2.435       .  S
O80        Zr775   2.436   1_545  S
O80         H121   0.990       .  S
O80         H124   0.990       .  S
O81         H114   0.990       .  S
O82       Zr1468   2.400   1_455  S
O82        Zr775   2.399   1_545  S
O82       Zr2190   2.380   1_445  S
O83        Zr103   2.369   1_445  S
O83       Zr1468   2.397   1_455  S
O83        Zr775   2.398   1_545  S
O83         H110   0.966       .  S
O84         Zr96   2.477       .  S
O84         C782   1.289       .  A
O85       Zr1495   2.446       .  S
O85         C782   1.298       .  A
C86         O780   1.288       .  A
C86         O781   1.300       .  A
C86         C180   1.517       .  S
O87       Zr1491   2.455       .  S
O87          C89   1.289       .  A
O88        Zr102   2.461       .  S
O88          C89   1.300       .  A
C89        C1531   1.486       .  S
O90         Zr99   2.509       .  S
O90        C1484   1.298       .  A
O91        Zr799   2.437       .  S
O91        C1484   1.295       .  A
C92        O1482   1.297       .  A
C92        O1483   1.296       .  A
C92         C153   1.516       .  S
O93        Zr792   2.427       .  S
O93          C95   1.281       .  A
O94        Zr102   2.485       .  S
O94          C95   1.307       .  A
C95         C822   1.491       .  S
Zr96        O789   2.423       .  S
Zr96        O108   2.403   1_565  S
Zr96        O106   2.378   1_565  S
Zr96        O800   2.365       .  S
Zr96        O801   2.390       .  S
Zr96         O98   2.434   1_565  S
Zr96        O793   2.436       .  S
O97        Zr792   2.435       .  S
O97         H117   0.990       .  S
O97         H122   0.990       .  S
O98         H118   0.990       .  S
Zr99       O1479   2.447       .  S
Zr99        O109   2.372   1_655  S
Zr99        O107   2.402   1_655  S
Zr99       O1497   2.393       .  S
Zr99       O1496   2.364       .  S
Zr99        O101   2.434   1_655  S
Zr99       O1492   2.434       .  S
O100      Zr1491   2.434       .  S
O100        H116   0.990       .  S
O101        H115   0.990       .  S
O101        H125   0.990       .  S
Zr102       O761   2.537       .  S
Zr102      O1463   2.545       .  S
Zr102       O105   2.402       .  S
Zr102      O2170   2.380       .  S
Zr102      O1499   2.395       .  S
Zr102       O804   2.394       .  S
Zr103      O1477   2.448       .  S
Zr103       O787   2.441       .  S
Zr103      O2192   2.374       .  S
Zr103      O1498   2.362   1_565  S
Zr103       O805   2.367   1_655  S
O104       Zr792   2.370       .  S
O104      Zr1491   2.368       .  S
O104      Zr2191   2.374       .  S
O104        H112   0.965       .  S
O105       Zr792   2.390       .  S
O105      Zr1491   2.392       .  S
O106      Zr1495   2.363   1_545  S
O107      Zr1494   2.399   1_455  S
O107        H111   0.965       .  S
O108       Zr798   2.397   1_545  S
O108        H113   0.966       .  S
O109       Zr799   2.363   1_455  S
C126        C791   1.493   1_545  S
C126        C127   1.381       .  A
C126        C131   1.443   1_545  A
C127        C128   1.365       .  A
C127        H132   1.089       .  S
C128        C710   1.452       .  S
C128        C129   1.400       .  A
C129        C130   1.404   1_545  A
C129        H133   1.072       .  S
C130        C197   1.521       .  S
C130        C131   1.444       .  A
C131        H134   1.082       .  S
C135        C256   1.511       .  S
C135        C136   1.409       .  A
C135        C140   1.443       .  A
C136        C137   1.399       .  A
C136        H141   1.085       .  S
C137       C1405   1.479       .  S
C137        C138   1.366       .  A
C138        C139   1.397       .  A
C138        H142   1.087       .  S
C139       C1481   1.483   1_455  S
C139        C140   1.443       .  A
C140        H143   1.082   1_455  S
C144        C194   1.507   1_545  S
C144        C145   1.398       .  A
C144        C149   1.468   1_545  A
C145        C146   1.366       .  A
C145        H150   1.087       .  S
C146        C147   1.387       .  A
C147        C148   1.397       .  A
C147        H151   1.071       .  S
C148        C149   1.467   1_545  A
C149        H152   1.082       .  S
C153        C154   1.438       .  A
C153        C158   1.406       .  A
C154        C155   1.440       .  A
C154        H159   1.082       .  S
C155        C273   1.484       .  S
C155        C156   1.395       .  A
C156        C157   1.359       .  A
C156        H160   1.086       .  S
C157       C1435   1.469       .  S
C157        C158   1.397       .  A
C158        H161   1.081       .  S
C162        C163   1.394       .  A
C162        C167   1.457       .  A
C163        C164   1.368       .  A
C163        H168   1.086       .  S
C164        C165   1.368   1_565  A
C165        C166   1.368       .  A
C165        H169   1.081       .  S
C166        C907   1.515   1_545  S
C166        C167   1.453   1_545  A
C167        H170   1.082       .  S
C171        C172   1.388       .  A
C171        C176   1.458       .  A
C172        C173   1.371   1_655  A
C172        H177   1.086       .  S
C173        C174   1.353       .  A
C174        C175   1.371       .  A
C174        H178   1.076       .  S
C175       C1674   1.513       .  S
C175        C176   1.458   1_455  A
C176        H179   1.081       .  S
C180        C181   1.391       .  A
C180        C185   1.440       .  A
C181        C182   1.390       .  A
C181        H186   1.082       .  S
C182        C183   1.358       .  A
C183        C184   1.391       .  A
C183        H187   1.087       .  S
C184        C220   1.487       .  S
C184        C185   1.445       .  A
C185        H188   1.082       .  S
O189       Zr549   2.466       .  S
O189        C539   1.285       .  A
O190       Zr923   2.472   1_545  S
O190        C539   1.304       .  A
C191        O537   1.287       .  A
C191        O538   1.304       .  A
C191        C679   1.500   1_556  S
O192       Zr900   2.448       .  S
O192        C194   1.285       .  A
O193       Zr228   2.512   1_554  S
O193        C194   1.311       .  A
O195       Zr204   2.508       .  S
O195        C893   1.299       .  A
O196       Zr575   2.469   1_554  S
O196        C893   1.299       .  A
C197        O891   1.294       .  A
C197        O892   1.301       .  A
O198       Zr201   2.472       .  S
O198        C200   1.290       .  A
O199       Zr228   2.497   1_545  S
O199        C200   1.306       .  A
C200        C313   1.512       .  S
Zr201       O537   2.450       .  S
Zr201       O207   2.386   1_556  S
Zr201       O208   2.376   1_556  S
Zr201       O579   2.378       .  S
Zr201       O581   2.388       .  S
Zr201       O202   2.434   1_556  S
Zr201       O551   2.436       .  S
O202        H245   0.990       .  S
O203       Zr549   2.436       .  S
O203        H244   0.990       .  S
O203        H248   0.990       .  S
Zr204       O888   2.478       .  S
Zr204       O232   2.374       .  S
Zr204       O234   2.382       .  S
Zr204       O904   2.398       .  S
Zr204       O903   2.381       .  S
Zr204       O206   2.435       .  S
Zr204       O901   2.436       .  S
O205       Zr900   2.436   1_545  S
O205        H246   0.990       .  S
O205        H249   0.990       .  S
O206        H239   0.990       .  S
O207       Zr900   2.379   1_545  S
O207      Zr1271   2.380   1_544  S
O208       Zr228   2.389   1_544  S
O208       Zr900   2.401   1_545  S
O208        H235   0.966       .  S
O209       Zr917   2.423       .  S
O209        C907   1.275       .  A
O210       Zr576   2.505       .  S
O210        C907   1.314       .  A
C211        O905   1.274       .  A
C211        O906   1.316       .  A
C211        C862   1.516       .  S
O212       Zr572   2.452       .  S
O212        C214   1.287       .  A
O213       Zr227   2.460       .  S
O213        C214   1.299       .  A
C214        C344   1.488       .  S
O215       Zr224   2.434       .  S
O215        C565   1.279   1_556  A
O216       Zr924   2.471       .  S
O216        C565   1.306   1_556  A
C217        O563   1.280       .  A
C217        O564   1.308       .  A
C217        C322   1.503       .  S
O218       Zr221   2.429       .  S
O218        C220   1.278       .  A
O219       Zr227   2.437       .  S
O219        C220   1.299       .  A
Zr221       O905   2.417       .  S
Zr221       O229   2.393       .  S
Zr221       O230   2.382       .  S
Zr221       O929   2.380       .  S
Zr221       O927   2.396       .  S
Zr221       O222   2.436       .  S
Zr221       O919   2.434       .  S
O222        H242   0.990       .  S
O222        H247   0.990       .  S
O223       Zr917   2.434   1_545  S
O223        H243   0.990       .  S
Zr224       O560   2.443       .  S
Zr224       O234   2.383   1_556  S
Zr224       O232   2.382   1_556  S
Zr224       O578   2.382       .  S
Zr224       O577   2.393       .  S
Zr224       O226   2.438   1_556  S
Zr224       O573   2.434       .  S
O225       Zr572   2.434       .  S
O225        H241   0.990       .  S
O226        H240   0.990       .  S
O226        H250   0.990       .  S
Zr227       O886   2.482       .  S
Zr227       O544   2.483       .  S
Zr227       O230   2.376       .  S
Zr227      O1251   2.377       .  S
Zr227       O580   2.372       .  S
Zr227       O929   2.379       .  S
Zr228       O558   2.566       .  S
Zr228       O912   2.447       .  S
Zr228      O1273   2.390       .  S
Zr228       O579   2.374   1_565  S
Zr228       O930   2.394   1_556  S
O229       Zr572   2.395       .  S
O229      Zr1272   2.393       .  S
O229        H237   0.966       .  S
O230       Zr572   2.377       .  S
O231       Zr549   2.387       .  S
O231       Zr917   2.394   1_545  S
O231       Zr576   2.372   1_545  S
O232       Zr575   2.380   1_554  S
O232        H236   0.966       .  S
O233       Zr549   2.389       .  S
O233       Zr917   2.381   1_545  S
O233       Zr923   2.380   1_545  S
O233        H238   0.965       .  S
O234       Zr924   2.386   1_554  S
O251       Zr611   2.456       .  S
O251        C601   1.284       .  A
O252      Zr1681   2.514   1_455  S
O252        C601   1.311       .  A
C253        O599   1.284   1_556  A
C253        O600   1.311       .  A
C253        C317   1.515       .  S
O254      Zr1658   2.491   1_455  S
O254        C256   1.294       .  A
O255       Zr290   2.464   1_454  S
O255        C256   1.299       .  A
O257       Zr266   2.439       .  S
O257       C1651   1.283       .  A
O258       Zr637   2.530   1_554  S
O258       C1651   1.313       .  A
C259       O1649   1.287       .  A
C259       O1650   1.310       .  A
O260       Zr263   2.444       .  S
O260        C262   1.280       .  A
O261       Zr290   2.444   1_455  S
O261        C262   1.299       .  A
C262        C674   1.505       .  S
Zr263       O599   2.454   1_556  S
Zr263       O269   2.379   1_556  S
Zr263       O270   2.390   1_556  S
Zr263       O641   2.394       .  S
Zr263       O643   2.386       .  S
Zr263       O264   2.435   1_556  S
Zr263       O613   2.438       .  S
O264        H307   0.990       .  S
O265       Zr611   2.439       .  S
O265        H306   0.990       .  S
O265        H310   0.990       .  S
Zr266      O1646   2.472       .  S
Zr266       O294   2.380       .  S
Zr266       O296   2.369       .  S
Zr266      O1662   2.381       .  S
Zr266      O1661   2.398       .  S
Zr266       O268   2.435       .  S
Zr266      O1659   2.435       .  S
O267      Zr1658   2.435   1_455  S
O267        H308   0.990       .  S
O267        H311   0.990       .  S
O268        H301   0.990       .  S
O269      Zr1658   2.398   1_455  S
O269      Zr2029   2.380   1_454  S
O270       Zr290   2.380   1_454  S
O270      Zr1658   2.381   1_455  S
O270        H297   0.966       .  S
O271       Zr283   2.444   1_655  S
O271       C1665   1.283   1_655  A
O272       Zr638   2.442       .  S
O272       C1665   1.297       .  A
C273       O1663   1.283       .  A
C273       O1664   1.298       .  A
O274       Zr634   2.428       .  S
O274        C276   1.280       .  A
O275       Zr289   2.494       .  S
O275        C276   1.311       .  A
C276        C335   1.498       .  S
O277       Zr286   2.465       .  S
O277        C627   1.289       .  A
O278      Zr1682   2.444       .  S
O278        C627   1.296       .  A
C279        O625   1.286       .  A
C279        O626   1.303       .  A
C279        C340   1.503       .  S
O280      Zr1675   2.425       .  S
O280        C282   1.277       .  A
O281       Zr289   2.498       .  S
O281        C282   1.313       .  A
C282       C1567   1.508       .  S
Zr283      O1672   2.422       .  S
Zr283       O295   2.406       .  S
Zr283       O293   2.374       .  S
Zr283      O1683   2.383   1_455  S
Zr283      O1684   2.391   1_455  S
Zr283       O285   2.435       .  S
Zr283      O1676   2.436   1_455  S
O284      Zr1675   2.436       .  S
O284        H304   0.990       .  S
O284        H309   0.990       .  S
O285        H305   0.990       .  S
Zr286       O622   2.447       .  S
Zr286       O296   2.386   1_556  S
Zr286       O294   2.381   1_556  S
Zr286       O640   2.381       .  S
Zr286       O639   2.372       .  S
Zr286       O288   2.436   1_556  S
Zr286       O635   2.434       .  S
O287       Zr634   2.434       .  S
O287        H303   0.990       .  S
O288        H302   0.990       .  S
O288        H312   0.990       .  S
Zr289      O1644   2.552       .  S
Zr289       O606   2.526       .  S
Zr289       O292   2.390       .  S
Zr289      O2009   2.384       .  S
Zr289       O642   2.394       .  S
Zr289      O1687   2.387       .  S
Zr290       O620   2.439   1_655  S
Zr290      O1670   2.478   1_556  S
Zr290      O2031   2.380       .  S
Zr290       O641   2.371   1_655  S
Zr290      O1688   2.373   1_556  S
O291      Zr1675   2.385       .  S
O291       Zr634   2.365       .  S
O291      Zr2030   2.378       .  S
O291        H299   0.965       .  S
O292      Zr1675   2.388       .  S
O292       Zr634   2.388       .  S
O293       Zr611   2.392       .  S
O293       Zr638   2.372       .  S
O294       Zr637   2.390   1_554  S
O294        H298   0.965       .  S
O295       Zr611   2.384       .  S
O295      Zr1681   2.386   1_455  S
O295        H300   0.966       .  S
O296      Zr1682   2.373   1_554  S
C313        C314   1.401       .  A
C313        C318   1.466   1_556  A
C314        C315   1.381       .  A
C314        H319   1.080       .  S
C315        C316   1.378       .  A
C316        C317   1.393       .  A
C316        H320   1.073       .  S
C317        C318   1.464   1_556  A
C318        H321   1.082       .  S
C322        C323   1.386       .  A
C322        C327   1.447       .  A
C323        C324   1.378       .  A
C323        H328   1.087       .  S
C324        C394   1.407       .  S
C324        C325   1.377       .  A
C325        C326   1.379       .  A
C325        H329   1.087       .  S
C326        C610   1.509       .  S
C326        C327   1.441       .  A
C327        H330   1.082       .  S
C331        C539   1.523       .  S
C331        C332   1.376       .  A
C331        C336   1.449       .  A
C332        C333   1.381       .  A
C332        H337   1.084       .  S
C333        C334   1.357       .  A
C334        C335   1.387       .  A
C334        H338   1.088       .  S
C335        C336   1.457       .  A
C336        H339   1.082       .  S
C340        C341   1.401       .  A
C340        C345   1.437       .  A
C341        C342   1.397       .  A
C341        H346   1.086       .  S
C342        C343   1.377       .  A
C343        C344   1.398       .  A
C343        H347   1.086       .  S
C344        C345   1.437       .  A
C345        H348   1.082       .  S
O349       Zr385   2.418       .  S
O349        C360   1.295       .  A
O350       C1753   1.280       .  A
O351       Zr357   2.453       .  S
O351        C362   1.286       .  A
O352      Zr2445   2.360       .  S
O352        C363   1.283       .  A
O353       Zr387   2.459       .  S
O353        C363   1.299       .  A
O354        C362   1.252       .  A
O355       Zr357   2.504       .  S
O355        C361   1.307       .  A
O356      Zr1053   2.413       .  S
O356        C360   1.293       .  A
Zr357      O2440   2.358       .  S
Zr357      O1052   2.408       .  S
Zr357      O1750   2.287       .  S
Zr357      O1055   2.308       .  S
Zr357      O2455   2.350       .  S
Zr357       O365   2.353       .  S
O358      Zr1749   2.285       .  S
O358      Zr1083   2.299       .  S
O359      Zr1053   2.312       .  S
O359       Zr385   2.273       .  S
O359       Zr734   2.318       .  S
C360       C1797   1.481       .  S
C361       O1742   1.279       .  A
C361       C1877   1.481       .  S
C362       C1172   1.455       .  S
C363        C494   1.482       .  S
H364        O365   0.965       .  S
O365      Zr1428   2.336       .  S
H366        O367   0.955       .  S
O367      Zr2445   2.346       .  S
O367      Zr1777   2.306       .  S
O367       Zr387   2.269       .  S
O368       Zr384   2.479   1_556  S
O368        C391   1.302       .  A
O369       C1784   1.290       .  A
O370       Zr386   2.442       .  S
O370        C393   1.297       .  A
O371      Zr1083   2.368       .  S
O371        C394   1.282       .  A
O372       Zr387   2.410       .  S
O372        C395   1.290       .  A
O373      Zr1082   2.336       .  S
O373        C396   1.282       .  A
O374      Zr2476   2.286       .  S
O374        C397   1.259       .  A
O375       Zr388   2.379   1_465  S
O375        C398   1.281       .  A
O376       Zr386   2.500   1_556  S
O376        C397   1.302       .  A
O377        C398   1.267       .  A
O378      Zr1776   2.392       .  S
O378        C393   1.288       .  A
O379        C396   1.311       .  A
O380      Zr1777   2.454       .  S
O380        C395   1.299       .  A
O381        C394   1.283       .  A
O382      Zr1084   2.340       .  S
O382        C391   1.273       .  A
O383       Zr388   2.310   1_455  S
O383        C392   1.261       .  A
Zr384      O1770   2.355       .  S
Zr384      O1409   2.333       .  S
Zr384      O1782   2.299   1_554  S
Zr384       O402   2.291   1_654  S
Zr385      O1772   2.422       .  S
Zr385      O1759   2.289       .  S
Zr385      O1433   2.284       .  S
Zr386      O1069   2.331       .  S
Zr386       O707   2.315       .  S
Zr386       O390   2.284   1_554  S
Zr386      O1096   2.316   1_554  S
Zr387      O1067   2.375   1_545  S
Zr387      O1054   2.292   1_545  S
Zr387       O750   2.346   1_545  S
Zr388      O2462   2.285       .  S
Zr388      O1078   2.380   1_545  S
Zr388       O389   2.260   1_655  S
Zr388      O2478   2.300   1_545  S
Zr388      O1098   2.254   1_645  S
Zr388      O1792   2.341       .  S
O389      Zr1429   2.289   1_556  S
O390      Zr1776   2.323   1_556  S
O390      Zr2476   2.298       .  S
C391       C1897   1.467       .  S
C392       O1761   1.286   1_455  A
C392        C521   1.393       .  S
C393        C690   1.468       .  S
C395        C663   1.489       .  S
C396        C681   1.476       .  S
C397        C530   1.423       .  S
C398        C512   1.390       .  S
H399        O400   0.965       .  S
O400      Zr1082   2.321   1_556  S
O400      Zr1780   2.340       .  S
H401        O402   0.965       .  S
O402       Zr735   2.347   1_556  S
O402      Zr1084   2.282   1_455  S
C403        C414   1.516   1_455  S
C403        C404   1.403       .  A
C403        C408   1.465   1_455  A
C404        C405   1.387       .  A
C404        H409   1.082       .  S
C405       C1752   1.483       .  S
C405        C406   1.376       .  A
C406        C407   1.403       .  A
C406        H410   1.086       .  S
C407        C607   1.506   1_455  S
C407        C408   1.466   1_455  A
C408        H411   1.082       .  S
O412       Zr424   2.434       .  S
O412       C1806   1.281       .  A
O413      Zr1146   2.551   1_545  S
O413       C1806   1.314       .  A
C414       O1804   1.280       .  A
C414       O1805   1.314       .  A
O415      Zr1123   2.450       .  S
O415        C417   1.279       .  A
O416       Zr451   2.471   1_455  S
O416        C417   1.307       .  A
C417        C510   1.521       .  S
O418       Zr427   2.435       .  S
O418       C1116   1.282       .  A
O419      Zr1842   2.566   1_455  S
O419       C1116   1.318       .  A
C420       O1114   1.279       .  A
C420       O1115   1.318       .  A
C420        C496   1.520   1_565  S
O421      Zr1816   2.462       .  S
O421        C423   1.283       .  A
O422       Zr451   2.463   1_545  S
O422        C423   1.304       .  A
C423        C519   1.520       .  S
Zr424      O1813   2.465       .  S
Zr424      O1822   2.403       .  S
Zr424      O1823   2.396       .  S
Zr424       O454   2.374       .  S
Zr424       O456   2.387       .  S
Zr424      O1817   2.434       .  S
Zr424       O426   2.437       .  S
O425      Zr1816   2.434   1_455  S
O425        H468   0.990       .  S
O426        H467   0.990       .  S
O426        H471   0.990       .  S
Zr427      O1111   2.465       .  S
Zr427      O1127   2.394       .  S
Zr427      O1126   2.402       .  S
Zr427       O455   2.379       .  S
Zr427       O457   2.376       .  S
Zr427      O1124   2.436       .  S
Zr427       O429   2.434       .  S
O428      Zr1123   2.435   1_545  S
O428        H469   0.990       .  S
O428        H472   0.990       .  S
O429        H462   0.990       .  S
O430      Zr1816   2.403   1_455  S
O430      Zr1123   2.398   1_545  S
O430      Zr2538   2.381   1_445  S
O431      Zr1816   2.399   1_455  S
O431      Zr1123   2.398   1_545  S
O431       Zr451   2.368   1_445  S
O431        H458   0.966       .  S
O432       Zr444   2.478       .  S
O432       C1130   1.289       .  A
O433      Zr1843   2.443       .  S
O433       C1130   1.297       .  A
C434       O1128   1.287       .  A
C434       O1129   1.301       .  A
C434        C528   1.520       .  S
O435      Zr1839   2.435       .  S
O435        C437   1.285       .  A
O436       Zr450   2.464       .  S
O436        C437   1.301       .  A
C437       C1879   1.475       .  S
O438       Zr447   2.506       .  S
O438       C1832   1.297       .  A
O439      Zr1147   2.438       .  S
O439       C1832   1.296       .  A
C440       O1830   1.295       .  A
C440       O1831   1.297       .  A
C440        C501   1.509       .  S
O441      Zr1140   2.423       .  S
O441        C443   1.280       .  A
O442       Zr450   2.497       .  S
O442        C443   1.309       .  A
C443       C1170   1.490       .  S
Zr444      O1137   2.425       .  S
Zr444      O1148   2.364       .  S
Zr444      O1149   2.390       .  S
Zr444       O456   2.405   1_565  S
Zr444       O454   2.381   1_565  S
Zr444      O1141   2.436       .  S
Zr444       O446   2.434   1_565  S
O445      Zr1140   2.436       .  S
O445        H465   0.990       .  S
O445        H470   0.990       .  S
O446        H466   0.990       .  S
Zr447      O1827   2.446       .  S
Zr447      O1845   2.392       .  S
Zr447      O1844   2.364       .  S
Zr447       O457   2.373   1_655  S
Zr447       O455   2.401   1_655  S
Zr447      O1840   2.434       .  S
Zr447       O449   2.435   1_655  S
O448      Zr1839   2.434       .  S
O448        H464   0.990       .  S
O449        H463   0.990       .  S
O449        H473   0.990       .  S
Zr450      O1109   2.551       .  S
Zr450      O1811   2.565       .  S
Zr450      O2518   2.382       .  S
Zr450       O453   2.407       .  S
Zr450      O1847   2.397       .  S
Zr450      O1152   2.397       .  S
Zr451      O1825   2.457       .  S
Zr451      O1135   2.443       .  S
Zr451      O2540   2.375       .  S
Zr451      O1846   2.364   1_565  S
Zr451      O1153   2.363   1_655  S
O452      Zr1140   2.365       .  S
O452      Zr1839   2.361       .  S
O452      Zr2539   2.375       .  S
O452        H460   0.965       .  S
O453      Zr1140   2.385       .  S
O453      Zr1839   2.390       .  S
O454      Zr1843   2.363   1_545  S
O455      Zr1842   2.401   1_455  S
O455        H459   0.965       .  S
O456      Zr1146   2.397   1_545  S
O456        H461   0.965       .  S
O457      Zr1147   2.365   1_455  S
C474       C1139   1.497   1_545  S
C474        C475   1.379       .  A
C474        C479   1.448   1_545  A
C475        C476   1.360       .  A
C475        H480   1.089       .  S
C476       C1058   1.455       .  S
C476        C477   1.407       .  A
C477        C478   1.405       .  A
C477        H481   1.075       .  S
C478        C545   1.533   1_545  S
C478        C479   1.449   1_545  A
C479        H482   1.082       .  S
C483        C604   1.510       .  S
C483        C484   1.409       .  A
C483        C488   1.443       .  A
C484        C485   1.401       .  A
C484        H489   1.085       .  S
C485       C1753   1.481       .  S
C485        C486   1.367       .  A
C486        C487   1.397       .  A
C486        H490   1.087       .  S
C487       C1829   1.481   1_455  S
C487        C488   1.443       .  A
C488        H491   1.082   1_455  S
C492        C542   1.498       .  S
C492        C493   1.401   1_565  A
C492        C497   1.465       .  A
C493        C494   1.368       .  A
C493        H498   1.086       .  S
C494        C495   1.392       .  A
C495        C496   1.403       .  A
C495        H499   1.082       .  S
C496        C497   1.463   1_545  A
C497        H500   1.082       .  S
C501        C502   1.443       .  A
C501        C506   1.403       .  A
C502        C503   1.443       .  A
C502        H507   1.082       .  S
C503        C621   1.500       .  S
C503        C504   1.398       .  A
C504        C505   1.372       .  A
C504        H508   1.086       .  S
C505       C1783   1.467       .  S
C505        C506   1.384       .  A
C506        H509   1.085       .  S
C510        C511   1.379       .  A
C510        C515   1.463       .  A
C511        C512   1.363       .  A
C511        H516   1.087       .  S
C512        C513   1.382   1_565  A
C513        C514   1.366       .  A
C513        H517   1.078       .  S
C514       C1255   1.529   1_545  S
C514        C515   1.462   1_545  A
C515        H518   1.081       .  S
C519        C520   1.387       .  A
C519        C524   1.459       .  A
C520        C521   1.369   1_655  A
C520        H525   1.086       .  S
C521        C522   1.350       .  A
C522        C523   1.373       .  A
C522        H526   1.074       .  S
C523       C2022   1.512   1_455  S
C523        C524   1.458   1_455  A
C524        H527   1.082       .  S
C528        C529   1.390       .  A
C528        C533   1.445       .  A
C529        C530   1.384       .  A
C529        H534   1.083       .  S
C530        C531   1.354       .  A
C531        C532   1.390       .  A
C531        H535   1.088       .  S
C532        C568   1.490       .  S
C532        C533   1.449       .  A
C533        H536   1.082       .  S
O538      Zr1271   2.496   1_545  S
O540      Zr1248   2.465       .  S
O540        C542   1.290       .  A
O541       Zr576   2.489       .  S
O541        C542   1.305       .  A
O543       Zr552   2.490       .  S
O543       C1241   1.294       .  A
O544       C1241   1.304       .  A
C545       O1239   1.295       .  A
C545       O1240   1.305       .  A
O546       Zr549   2.457       .  S
O546        C548   1.286       .  A
O547       Zr576   2.515   1_545  S
O547        C548   1.310       .  A
C548        C661   1.514       .  S
Zr549       O555   2.395       .  S
Zr549       O556   2.386       .  S
Zr549       O550   2.435       .  S
O550        H593   0.990       .  S
O551        H592   0.990       .  S
O551        H596   0.990       .  S
Zr552      O1236   2.462       .  S
Zr552      O1252   2.396       .  S
Zr552      O1251   2.388       .  S
Zr552       O580   2.365       .  S
Zr552       O582   2.379       .  S
Zr552      O1249   2.436       .  S
Zr552       O554   2.435       .  S
O553      Zr1248   2.436   1_545  S
O553        H594   0.990       .  S
O553        H597   0.990       .  S
O554        H587   0.990       .  S
O555      Zr1248   2.388   1_545  S
O555       Zr923   2.377   1_545  S
O556      Zr1248   2.397   1_545  S
O556       Zr576   2.388   1_545  S
O556        H583   0.966       .  S
O557      Zr1265   2.416       .  S
O557       C1255   1.275       .  A
O558       C1255   1.325       .  A
C559       O1253   1.276       .  A
C559       O1254   1.315       .  A
C559       C1210   1.519       .  S
O560        C562   1.285       .  A
O561       Zr575   2.452       .  S
O561        C562   1.298       .  A
C562        C692   1.485   1_556  S
O563       Zr572   2.434       .  S
O564      Zr1272   2.479       .  S
C565        C670   1.500       .  S
O566       Zr569   2.431       .  S
O566        C568   1.279       .  A
O567       Zr575   2.444       .  S
O567        C568   1.300       .  A
Zr569      O1253   2.429       .  S
Zr569       O577   2.394       .  S
Zr569       O578   2.384       .  S
Zr569      O1277   2.393       .  S
Zr569      O1275   2.395       .  S
Zr569       O570   2.436       .  S
Zr569      O1267   2.434       .  S
O570        H590   0.990       .  S
O570        H595   0.990       .  S
O571      Zr1265   2.434   1_545  S
O571        H591   0.990       .  S
Zr572       O582   2.386       .  S
Zr572       O580   2.375       .  S
Zr572       O574   2.438       .  S
O573        H589   0.990       .  S
O574        H588   0.990       .  S
O574        H598   0.990       .  S
Zr575      O1234   2.490       .  S
Zr575       O903   2.379   1_556  S
Zr575       O578   2.377       .  S
Zr575      O1277   2.380       .  S
Zr576      O1260   2.466       .  S
Zr576       O925   2.390       .  S
Zr576      O1278   2.384       .  S
O577       Zr924   2.390       .  S
O577        H585   0.966       .  S
O579      Zr1265   2.393   1_545  S
O580        H584   0.965       .  S
O581      Zr1265   2.386   1_545  S
O581      Zr1271   2.382   1_545  S
O581        H586   0.966       .  S
O582      Zr1272   2.385       .  S
O600      Zr2029   2.518   1_455  S
C601        C665   1.515       .  S
O602      Zr2006   2.483   1_455  S
O602        C604   1.292       .  A
O603       Zr638   2.473       .  S
O603        C604   1.300       .  A
O605       Zr614   2.451       .  S
O605       C1999   1.287       .  A
O606       C1999   1.311       .  A
C607       O1997   1.285       .  A
C607       O1998   1.312       .  A
O608       Zr611   2.449       .  S
O608        C610   1.281       .  A
O609       Zr638   2.445       .  S
O609        C610   1.299       .  A
Zr611       O617   2.383       .  S
Zr611       O618   2.391       .  S
Zr611       O612   2.434       .  S
O612        H655   0.990       .  S
O613        H654   0.990       .  S
O613        H658   0.990       .  S
Zr614      O1994   2.482       .  S
Zr614      O2010   2.383       .  S
Zr614      O2009   2.396       .  S
Zr614       O642   2.381       .  S
Zr614       O644   2.370       .  S
Zr614      O2007   2.435       .  S
Zr614       O616   2.435       .  S
O615      Zr2006   2.435   1_455  S
O615        H656   0.990       .  S
O615        H659   0.990       .  S
O616        H649   0.990       .  S
O617      Zr2006   2.399   1_455  S
O617      Zr1681   2.381   1_455  S
O618      Zr2006   2.382   1_455  S
O618       Zr638   2.379       .  S
O618        H645   0.966       .  S
O619       Zr631   2.453   1_655  S
O619       C2013   1.285       .  A
O620       C2013   1.297   1_455  A
C621       O2011   1.286       .  A
C621       O2012   1.298       .  A
O622        C624   1.286       .  A
O623       Zr637   2.461       .  S
O623        C624   1.300       .  A
C624        C683   1.479   1_556  S
O625       Zr634   2.454       .  S
O626      Zr2030   2.487       .  S
C627        C688   1.495   1_556  S
O628      Zr2023   2.424       .  S
O628        C630   1.276       .  A
O629       Zr637   2.503       .  S
O629        C630   1.314       .  A
C630       C1915   1.514       .  S
Zr631      O2020   2.424       .  S
Zr631      O2031   2.382   1_455  S
Zr631      O2032   2.393   1_455  S
Zr631       O643   2.410       .  S
Zr631       O641   2.374       .  S
Zr631      O2024   2.436   1_455  S
Zr631       O633   2.435       .  S
O632      Zr2023   2.437       .  S
O632        H652   0.990       .  S
O632        H657   0.990       .  S
O633        H653   0.990       .  S
Zr634       O644   2.379       .  S
Zr634       O642   2.390       .  S
Zr634       O636   2.436       .  S
O635        H651   0.990       .  S
O636        H650   0.990       .  S
O636        H660   0.990       .  S
Zr637      O1992   2.512       .  S
Zr637      O1661   2.379   1_556  S
Zr637       O640   2.391       .  S
Zr637      O2035   2.389       .  S
Zr638      O2018   2.482   1_455  S
Zr638      O1683   2.383   1_455  S
Zr638      O2036   2.372   1_455  S
O639      Zr2023   2.376       .  S
O639      Zr1682   2.380       .  S
O639        H647   0.965       .  S
O640      Zr2023   2.395       .  S
O642        H646   0.966       .  S
O643      Zr2029   2.385   1_455  S
O643        H648   0.966       .  S
O644      Zr2030   2.370       .  S
C661        C662   1.402       .  A
C661        C666   1.466       .  A
C662        C663   1.383       .  A
C662        H667   1.080       .  S
C663        C664   1.378       .  A
C664        C665   1.394       .  A
C664        H668   1.076       .  S
C665        C666   1.464       .  A
C666        H669   1.082       .  S
C670        C671   1.386       .  A
C670        C675   1.444   1_554  A
C671        C672   1.377       .  A
C671        H676   1.087       .  S
C672        C673   1.376   1_554  A
C673        C674   1.381       .  A
C673        H677   1.087       .  S
C674        C675   1.440       .  A
C675        H678   1.082       .  S
C679        C680   1.403       .  A
C679        C684   1.442   1_554  A
C680        C681   1.397       .  A
C680        H685   1.086       .  S
C681        C682   1.367       .  A
C682        C683   1.398       .  A
C682        H686   1.086       .  S
C683        C684   1.442   1_554  A
C684        H687   1.082       .  S
C688        C689   1.402       .  A
C688        C693   1.435   1_554  A
C689        C690   1.385       .  A
C689        H694   1.086       .  S
C690        C691   1.373       .  A
C691        C692   1.398       .  A
C691        H695   1.086       .  S
C692        C693   1.435   1_554  A
C693        H696   1.082       .  S
O697       Zr733   2.404       .  S
O697        C708   1.293       .  A
O698      Zr1080   2.387       .  S
O698       C2101   1.286       .  A
O699       Zr705   2.417       .  S
O699        C710   1.273       .  A
O700      Zr1401   2.360       .  S
O700        C711   1.283       .  A
O701       Zr735   2.460       .  S
O701        C711   1.299       .  A
O702      Zr1082   2.381       .  S
O702        C710   1.255       .  A
O703       Zr705   2.500   1_565  S
O703        C709   1.305       .  A
O704        C708   1.295       .  A
Zr705      O1396   2.361       .  S
Zr705      O2098   2.278   1_545  S
Zr705      O1411   2.346       .  S
Zr705       O713   2.378   1_545  S
O706      Zr2097   2.330   1_565  S
O706      Zr1080   2.342       .  S
O707       Zr733   2.258       .  S
C708       C2145   1.483       .  S
C709       O2090   1.280       .  A
C709       C2225   1.479       .  S
C711        C842   1.481       .  S
H712        O713   0.965       .  S
O713      Zr2472   2.333       .  S
O713      Zr1082   2.375   1_565  S
H714        O715   0.955       .  S
O715      Zr1401   2.346       .  S
O715      Zr2125   2.307       .  S
O715       Zr735   2.266       .  S
O716       Zr732   2.480       .  S
O716        C739   1.302       .  A
O717      Zr1081   2.382       .  S
O717       C2132   1.284       .  A
O718       Zr734   2.456   1_565  S
O718        C741   1.300       .  A
O719        C742   1.295       .  A
O720       Zr735   2.410   1_556  S
O720        C743   1.290       .  A
O721        C744   1.271       .  A
O722      Zr1432   2.284       .  S
O722        C745   1.262       .  A
O723       Zr736   2.344   1_455  S
O723        C746   1.274       .  A
O724       Zr734   2.507       .  S
O724        C745   1.305       .  A
O725      Zr1083   2.355       .  S
O725        C746   1.282       .  A
O726      Zr2124   2.369       .  S
O726        C741   1.284       .  A
O727      Zr1081   2.431       .  S
O727        C744   1.292       .  A
O728      Zr2125   2.459   1_556  S
O728        C743   1.299       .  A
O729      Zr1080   2.425   1_556  S
O729        C742   1.293       .  A
O730        C739   1.272       .  A
O731       Zr736   2.313   1_455  S
O731        C740   1.267       .  A
Zr732      O1046   2.344   1_655  S
Zr732      O2118   2.361       .  S
Zr732      O1077   2.374   1_655  S
Zr732      O1054   2.338   1_655  S
Zr732      O2453   2.336       .  S
Zr732      O2130   2.301       .  S
Zr732       O750   2.290   1_655  S
Zr733      O1065   2.398   1_554  S
Zr733      O1075   2.510       .  S
Zr733      O2120   2.446   1_554  S
Zr733      O2107   2.320       .  S
Zr733      O2477   2.288   1_554  S
Zr733      O1096   2.320   1_554  S
Zr734      O1050   2.376       .  S
Zr734      O1061   2.360   1_545  S
Zr734       O738   2.291   1_545  S
Zr735      O1073   2.342   1_554  S
Zr735      O1085   2.281   1_554  S
Zr736      O1418   2.280       .  S
Zr736       O737   2.250   1_655  S
Zr736      O1434   2.289       .  S
Zr736      O2140   2.310       .  S
O737      Zr2473   2.284       .  S
O737      Zr1083   2.277       .  S
O738      Zr2124   2.289       .  S
O738      Zr1432   2.289   1_565  S
C739       C2245   1.468       .  S
C740       O2109   1.284       .  A
C740        C869   1.399       .  S
C741       C1038   1.469       .  S
C742       C1368   1.472       .  S
C743       C1011   1.489       .  S
C744       C1029   1.399       .  S
C745        C878   1.436       .  S
C746        C860   1.399       .  S
H747        O748   0.964       .  S
O748      Zr1081   2.305       .  S
O748      Zr2128   2.307       .  S
H749        O750   0.965       .  S
C751        C762   1.516   1_455  S
C751        C752   1.404       .  A
C751        C756   1.466   1_455  A
C752        C753   1.387       .  A
C752        H757   1.083       .  S
C753       C2100   1.483       .  S
C753        C754   1.377       .  A
C754        C755   1.403   1_455  A
C754        H758   1.086       .  S
C755        C955   1.508       .  S
C755        C756   1.467       .  A
C756        H759   1.082       .  S
O760       Zr772   2.440       .  S
O760       C2154   1.283       .  A
O761       C2154   1.311       .  A
C762       O2152   1.280       .  A
C762       O2153   1.314       .  A
O763        C765   1.283       .  A
O764       Zr799   2.462   1_455  S
O764        C765   1.303       .  A
C765        C858   1.514       .  S
O766       Zr775   2.444       .  S
O767      Zr2190   2.544   1_455  S
C768        C844   1.526       .  S
O769      Zr2164   2.462       .  S
O769        C771   1.283       .  A
O770       Zr799   2.452       .  S
O770        C771   1.301       .  A
C771        C867   1.518       .  S
Zr772      O2161   2.466       .  S
Zr772      O2170   2.400       .  S
Zr772      O2171   2.400       .  S
Zr772       O802   2.376       .  S
Zr772       O804   2.385       .  S
Zr772      O2165   2.435       .  S
Zr772       O774   2.437       .  S
O773      Zr2164   2.434   1_455  S
O773        H816   0.990       .  S
O774        H815   0.990       .  S
O774        H819   0.990       .  S
Zr775       O803   2.381       .  S
Zr775       O805   2.379       .  S
Zr775       O777   2.434       .  S
O776        H817   0.990       .  S
O776        H820   0.990       .  S
O777        H810   0.990       .  S
O778      Zr2164   2.403   1_455  S
O778      Zr1494   2.381   1_455  S
O779      Zr2164   2.399   1_455  S
O779       Zr799   2.367   1_455  S
O779        H806   0.966       .  S
O780       Zr792   2.472       .  S
O781      Zr2191   2.453       .  S
C782        C876   1.517       .  S
O783      Zr2187   2.449       .  S
O783        C785   1.287       .  A
O784       Zr798   2.467       .  S
O784        C785   1.302       .  A
C785       C2227   1.484       .  S
O786       Zr795   2.505       .  S
O786       C2180   1.297       .  A
O787       C2180   1.296       .  A
C788       O2178   1.298       .  A
C788       O2179   1.295       .  A
C788        C849   1.515       .  S
O789        C791   1.280       .  A
O790       Zr798   2.499       .  S
O790        C791   1.309       .  A
Zr792       O804   2.402       .  S
Zr792       O802   2.378       .  S
Zr792       O794   2.434       .  S
O793        H813   0.990       .  S
O793        H818   0.990       .  S
O794        H814   0.990       .  S
Zr795      O2175   2.454       .  S
Zr795      O2193   2.392       .  S
Zr795      O2192   2.368       .  S
Zr795       O805   2.374   1_655  S
Zr795       O803   2.400   1_655  S
Zr795      O2188   2.434       .  S
Zr795       O797   2.434   1_655  S
O796      Zr2187   2.434       .  S
O796        H812   0.990       .  S
O797        H811   0.990       .  S
O797        H821   0.990       .  S
Zr798      O2159   2.567       .  S
Zr798      O1474   2.381   1_565  S
Zr798       O801   2.408       .  S
Zr798      O2195   2.399       .  S
Zr799      O2173   2.446       .  S
Zr799      O1496   2.375       .  S
Zr799      O2194   2.363       .  S
O800      Zr2187   2.365       .  S
O800      Zr1495   2.375       .  S
O800        H808   0.965       .  S
O801      Zr2187   2.393       .  S
O802      Zr2191   2.364       .  S
O803      Zr2190   2.396   1_455  S
O803        H807   0.966       .  S
O804        H809   0.966       .  S
C822        C823   1.381       .  A
C822        C827   1.442       .  A
C823        C824   1.363       .  A
C823        H828   1.089       .  S
C824        C825   1.406       .  A
C825        C826   1.414       .  A
C825        H829   1.076       .  S
C826        C893   1.529       .  S
C826        C827   1.444       .  A
C827        H830   1.082       .  S
C831        C952   1.500   1_455  S
C831        C832   1.404       .  A
C831        C836   1.440   1_455  A
C832        C833   1.389       .  A
C832        H837   1.086       .  S
C833       C2101   1.475       .  S
C833        C834   1.373       .  A
C834        C835   1.397       .  A
C834        H838   1.087       .  S
C835       C2177   1.485   1_455  S
C835        C836   1.441   1_455  A
C836        H839   1.082       .  S
C840        C890   1.505       .  S
C840        C841   1.400       .  A
C840        C845   1.468       .  A
C841        C842   1.369       .  A
C841        H846   1.086       .  S
C842        C843   1.392       .  A
C843        C844   1.402       .  A
C843        H847   1.082       .  S
C844        C845   1.467       .  A
C845        H848   1.082       .  S
C849        C850   1.437       .  A
C849        C854   1.407       .  A
C850        C851   1.439       .  A
C850        H855   1.082       .  S
C851        C969   1.484       .  S
C851        C852   1.396       .  A
C852        C853   1.360       .  A
C852        H856   1.086       .  S
C853       C2131   1.470       .  S
C853        C854   1.396       .  A
C854        H857   1.083       .  S
C858        C859   1.392       .  A
C858        C863   1.458       .  A
C859        C860   1.371       .  A
C859        H864   1.086       .  S
C860        C861   1.368       .  A
C861        C862   1.363       .  A
C861        H865   1.082       .  S
C862        C863   1.454       .  A
C863        H866   1.082       .  S
C867        C868   1.387       .  A
C867        C872   1.457       .  A
C868        C869   1.368   1_655  A
C868        H873   1.086       .  S
C869        C870   1.355       .  A
C870        C871   1.375       .  A
C870        H874   1.077       .  S
C871       C2370   1.510   1_455  S
C871        C872   1.457   1_455  A
C872        H875   1.081       .  S
C876        C877   1.392   1_565  A
C876        C881   1.438   1_565  A
C877        C878   1.392       .  A
C877        H882   1.082   1_545  S
C878        C879   1.358       .  A
C879        C880   1.393       .  A
C879        H883   1.087       .  S
C880        C916   1.484       .  S
C880        C881   1.444       .  A
C881        H884   1.082   1_545  S
O885      Zr1245   2.467       .  S
O885       C1235   1.285       .  A
O886       C1235   1.307       .  A
C887       O1233   1.290       .  A
C887       O1234   1.303   1_554  A
C887       C1375   1.507       .  S
O888        C890   1.293       .  A
O889       Zr924   2.492   1_554  S
O889        C890   1.305       .  A
O891       Zr900   2.486       .  S
O892      Zr1271   2.474   1_554  S
O894       Zr897   2.476   1_554  S
O894        C896   1.291   1_554  A
O895       Zr924   2.519       .  S
O895        C896   1.311       .  A
C896       C1009   1.525       .  S
Zr897      O1233   2.466   1_556  S
Zr897       O903   2.384   1_556  S
Zr897       O904   2.381   1_556  S
Zr897      O1275   2.384       .  S
Zr897      O1277   2.391       .  S
Zr897       O898   2.434   1_556  S
Zr897      O1247   2.435       .  S
O898        H941   0.990       .  S
O899      Zr1245   2.436       .  S
O899        H940   0.990       .  S
O899        H944   0.990       .  S
Zr900       O928   2.365       .  S
Zr900       O930   2.387       .  S
Zr900       O902   2.435       .  S
O901        H942   0.990       .  S
O901        H945   0.990       .  S
O902        H935   0.990       .  S
O904       Zr924   2.389   1_554  S
O904        H931   0.966       .  S
O906      Zr1272   2.514       .  S
O908      Zr1268   2.455       .  S
O908        C910   1.287       .  A
O909       Zr923   2.451       .  S
O909        C910   1.297       .  A
C910       C1040   1.485       .  S
O911       Zr920   2.450       .  S
O911       C1261   1.286       .  A
O912       C1261   1.299       .  A
C913       O1259   1.281       .  A
C913       O1260   1.305       .  A
C913       C1018   1.503       .  S
O914       Zr917   2.430   1_545  S
O914        C916   1.279       .  A
O915       Zr923   2.437       .  S
O915        C916   1.298   1_565  A
Zr917       O925   2.393       .  S
Zr917       O926   2.384       .  S
Zr917       O918   2.435       .  S
O918        H938   0.990       .  S
O918        H943   0.990       .  S
O919        H939   0.990       .  S
Zr920      O1256   2.458       .  S
Zr920      O1274   2.385       .  S
Zr920      O1273   2.391       .  S
Zr920       O930   2.379   1_556  S
Zr920       O928   2.379   1_556  S
Zr920      O1269   2.434       .  S
Zr920       O922   2.436   1_556  S
O921      Zr1268   2.434       .  S
O921        H937   0.990       .  S
O922        H936   0.990       .  S
O922        H946   0.990       .  S
Zr923      O1240   2.492       .  S
Zr923       O926   2.376       .  S
Zr923      O1276   2.372       .  S
Zr924      O1254   2.510       .  S
Zr924      O1275   2.374       .  S
O925      Zr1268   2.395       .  S
O925        H933   0.966       .  S
O926      Zr1268   2.378       .  S
O927      Zr1245   2.387       .  S
O927      Zr1272   2.374       .  S
O928      Zr1271   2.382   1_554  S
O928        H932   0.965       .  S
O929      Zr1245   2.389       .  S
O929        H934   0.965       .  S
O947      Zr1307   2.458       .  S
O947       C1297   1.285       .  A
O948      Zr2377   2.549   1_455  S
O948       C1297   1.317       .  A
C949       O1295   1.288   1_556  A
C949       O1296   1.312       .  A
C949       C1013   1.526       .  S
O950      Zr2354   2.473       .  S
O950        C952   1.290       .  A
O951       Zr986   2.456   1_554  S
O951        C952   1.297       .  A
O953       Zr962   2.452       .  S
O953       C2347   1.287       .  A
O954      Zr1333   2.523   1_554  S
O954       C2347   1.310       .  A
C955       O2345   1.283       .  A
C955       O2346   1.313       .  A
O956       Zr959   2.454   1_556  S
O956        C958   1.286       .  A
O957       Zr986   2.438   1_454  S
O957        C958   1.295   1_554  A
C958       C1370   1.487       .  S
Zr959      O1295   2.474       .  S
Zr959       O965   2.381       .  S
Zr959       O966   2.382       .  S
Zr959      O1337   2.395   1_554  S
Zr959      O1339   2.385   1_554  S
Zr959       O960   2.434       .  S
Zr959      O1309   2.438   1_554  S
O960       H1003   0.990       .  S
O961      Zr1307   2.438       .  S
O961       H1002   0.990       .  S
O961       H1006   0.990       .  S
Zr962      O2342   2.492       .  S
Zr962      O2358   2.382       .  S
Zr962      O2357   2.398       .  S
Zr962       O990   2.385       .  S
Zr962       O992   2.369       .  S
Zr962      O2355   2.435       .  S
Zr962       O964   2.435       .  S
O963      Zr2354   2.435   1_455  S
O963       H1004   0.990       .  S
O963       H1007   0.990       .  S
O964        H997   0.990       .  S
O965      Zr2354   2.398   1_455  S
O965      Zr2725   2.378   1_454  S
O966      Zr2354   2.381   1_455  S
O966       Zr986   2.379   1_454  S
O966        H993   0.966       .  S
O967       Zr979   2.453   1_655  S
O967       C2361   1.285       .  A
O968      Zr1334   2.443       .  S
O968       C2361   1.297   1_455  A
C969       O2359   1.283       .  A
C969       O2360   1.298       .  A
O970      Zr1330   2.422       .  S
O970        C972   1.278       .  A
O971       Zr985   2.503       .  S
O971        C972   1.314       .  A
C972       C1031   1.504       .  S
O973       Zr982   2.475       .  S
O973       C1323   1.291   1_556  A
O974      Zr2378   2.476   1_554  S
O974       C1323   1.302       .  A
C975       O1321   1.285       .  A
C975       O1322   1.303       .  A
C975       C1036   1.499       .  S
O976      Zr2371   2.427       .  S
O976        C978   1.278       .  A
O977       Zr985   2.503       .  S
O977        C978   1.314       .  A
C978       C2263   1.511       .  S
Zr979      O2368   2.428       .  S
Zr979      O2379   2.384   1_455  S
Zr979      O2380   2.392   1_455  S
Zr979       O991   2.403       .  S
Zr979       O989   2.375       .  S
Zr979      O2372   2.435   1_455  S
Zr979       O981   2.435       .  S
O980      Zr2371   2.436       .  S
O980       H1000   0.990       .  S
O980       H1005   0.990       .  S
O981       H1001   0.990       .  S
Zr982      O1318   2.460       .  S
Zr982      O1336   2.383       .  S
Zr982      O1335   2.374       .  S
Zr982       O992   2.384   1_556  S
Zr982       O990   2.385   1_556  S
Zr982      O1331   2.434       .  S
Zr982       O984   2.436   1_556  S
O983      Zr1330   2.434       .  S
O983        H999   0.990       .  S
O984        H998   0.990       .  S
O984       H1008   0.990       .  S
Zr985      O2340   2.551       .  S
Zr985      O1302   2.520       .  S
Zr985      O2705   2.386       .  S
Zr985       O988   2.389       .  S
Zr985      O1338   2.393       .  S
Zr985      O2383   2.389       .  S
Zr986      O1316   2.455   1_655  S
Zr986      O2366   2.446       .  S
Zr986      O2727   2.381       .  S
Zr986      O1337   2.374   1_655  S
Zr986      O2384   2.373   1_556  S
O987      Zr2371   2.386       .  S
O987      Zr1330   2.364       .  S
O987      Zr2726   2.379       .  S
O987        H995   0.965       .  S
O988      Zr2371   2.391       .  S
O988      Zr1330   2.389       .  S
O989      Zr1307   2.391       .  S
O989      Zr1334   2.372       .  S
O990      Zr1333   2.394   1_554  S
O990        H994   0.966       .  S
O991      Zr1307   2.389       .  S
O991      Zr2377   2.390   1_455  S
O991        H996   0.966       .  S
O992      Zr2378   2.373   1_554  S
C1009      C1010   1.401       .  A
C1009      C1014   1.473   1_556  A
C1010      C1011   1.383       .  A
C1010      H1015   1.080       .  S
C1011      C1012   1.378       .  A
C1012      C1013   1.392       .  A
C1012      H1016   1.075       .  S
C1013      C1014   1.471   1_556  A
C1014      H1017   1.081       .  S
C1018      C1019   1.389       .  A
C1018      C1023   1.446       .  A
C1019      C1020   1.378       .  A
C1019      H1024   1.087       .  S
C1020      C1090   1.416       .  S
C1020      C1021   1.376       .  A
C1021      C1022   1.386       .  A
C1021      H1025   1.086       .  S
C1022      C1306   1.510       .  S
C1022      C1023   1.441       .  A
C1023      H1026   1.082       .  S
C1027      C1235   1.525       .  S
C1027      C1028   1.372       .  A
C1027      C1032   1.450       .  A
C1028      C1029   1.384       .  A
C1028      H1033   1.085       .  S
C1029      C1030   1.362       .  A
C1030      C1031   1.384       .  A
C1030      H1034   1.088       .  S
C1031      C1032   1.459       .  A
C1032      H1035   1.081       .  S
C1036      C1037   1.400       .  A
C1036      C1041   1.435       .  A
C1037      C1038   1.396       .  A
C1037      H1042   1.086       .  S
C1038      C1039   1.377       .  A
C1039      C1040   1.399       .  A
C1039      H1043   1.086       .  S
C1040      C1041   1.435       .  A
C1041      H1044   1.082       .  S
O1045     Zr1081   2.423       .  S
O1045      C1056   1.296       .  A
O1046      C2449   1.280       .  A
O1047     Zr1053   2.438       .  S
O1047      C1058   1.279       .  A
O1048     Zr1749   2.355       .  S
O1048      C1059   1.283       .  A
O1049     Zr1083   2.469       .  S
O1049      C1059   1.302       .  A
O1050      C1058   1.251       .  A
O1051     Zr1053   2.498   1_565  S
O1051      C1057   1.305       .  A
O1052      C1056   1.292       .  A
Zr1053     O1744   2.353       .  S
Zr1053     O2446   2.285   1_545  S
Zr1053     O1759   2.350       .  S
Zr1053     O1061   2.363   1_545  S
O1054     Zr2445   2.281   1_565  S
O1055     Zr1081   2.279       .  S
C1056      C2493   1.481       .  S
C1057      O2438   1.280       .  A
C1057      C2573   1.480       .  S
C1059      C1190   1.483       .  S
H1060      O1061   0.965       .  S
O1061     Zr2124   2.332       .  S
H1062      O1063   0.955       .  S
O1063     Zr1749   2.350       .  S
O1063     Zr2473   2.283       .  S
O1063     Zr1083   2.270       .  S
O1064     Zr1080   2.447   1_656  S
O1064      C1087   1.298       .  A
O1065      C2480   1.286       .  A
O1066     Zr1082   2.478   1_565  S
O1066      C1089   1.304       .  A
O1067      C1090   1.282       .  A
O1068     Zr1083   2.432       .  S
O1068      C1091   1.294       .  A
O1069      C1092   1.282       .  A
O1070     Zr1780   2.281       .  S
O1070      C1093   1.259       .  A
O1071     Zr1084   2.366   1_455  S
O1071      C1094   1.278       .  A
O1072     Zr1082   2.510   1_556  S
O1072      C1093   1.304       .  A
O1073      C1094   1.279       .  A
O1074     Zr2472   2.355       .  S
O1074      C1089   1.280       .  A
O1075      C1092   1.311       .  A
O1076     Zr2473   2.417       .  S
O1076      C1091   1.291       .  A
O1077      C1090   1.284       .  A
O1078      C1087   1.283       .  A
O1079     Zr1084   2.296   1_455  S
O1079      C1088   1.263       .  A
Zr1080     O2466   2.394   1_455  S
Zr1080     O2105   2.343   1_455  S
Zr1080     O2478   2.324   1_454  S
Zr1080     O1098   2.291   1_554  S
Zr1081     O2468   2.417       .  S
Zr1081     O2455   2.281       .  S
Zr1081     O2129   2.286       .  S
Zr1082     O1086   2.294   1_544  S
Zr1084     O1766   2.281       .  S
Zr1084     O1085   2.253   1_655  S
Zr1084     O1782   2.294       .  S
Zr1084     O2488   2.337       .  S
O1085     Zr2125   2.291   1_556  S
O1086     Zr2472   2.301   1_556  S
O1086     Zr1780   2.295   1_565  S
C1087      C2593   1.467       .  S
C1088      O2457   1.289   1_455  A
C1088      C1217   1.395       .  S
C1089      C1386   1.472       .  S
C1091      C1359   1.488       .  S
C1092      C1377   1.473       .  S
C1093      C1226   1.432       .  S
C1094      C1208   1.406       .  S
H1095      O1096   0.966       .  S
O1096     Zr2476   2.341       .  S
H1097      O1098   0.961       .  S
C1099      C1110   1.517   1_455  S
C1099      C1100   1.402       .  A
C1099      C1104   1.466   1_455  A
C1100      C1101   1.386       .  A
C1100      H1105   1.083       .  S
C1101      C2448   1.481       .  S
C1101      C1102   1.378       .  A
C1102      C1103   1.403       .  A
C1102      H1106   1.086       .  S
C1103      C1303   1.509   1_455  S
C1103      C1104   1.467   1_455  A
C1104      H1107   1.082       .  S
O1108     Zr1120   2.433       .  S
O1108      C2502   1.281       .  A
O1109      C2502   1.314       .  A
C1110      O2500   1.281       .  A
C1110      O2501   1.315       .  A
O1111      C1113   1.284       .  A
O1112     Zr1147   2.454   1_455  S
O1112      C1113   1.302       .  A
C1113      C1206   1.517       .  S
O1114     Zr1123   2.426       .  S
O1115     Zr2538   2.563   1_455  S
C1116      C1192   1.525       .  S
O1117     Zr2512   2.465       .  S
O1117      C1119   1.284       .  A
O1118     Zr1147   2.461       .  S
O1118      C1119   1.303       .  A
C1119      C1215   1.519       .  S
Zr1120     O2509   2.465       .  S
Zr1120     O2518   2.404       .  S
Zr1120     O2519   2.399       .  S
Zr1120     O1150   2.372       .  S
Zr1120     O1152   2.386       .  S
Zr1120     O2513   2.435       .  S
Zr1120     O1122   2.437       .  S
O1121     Zr2512   2.435   1_455  S
O1121      H1164   0.990       .  S
O1122      H1163   0.990       .  S
O1122      H1167   0.990       .  S
Zr1123     O1151   2.375       .  S
Zr1123     O1153   2.378       .  S
Zr1123     O1125   2.434       .  S
O1124      H1165   0.990       .  S
O1124      H1168   0.990       .  S
O1125      H1158   0.990       .  S
O1126     Zr2512   2.403   1_455  S
O1126     Zr1842   2.383   1_455  S
O1127     Zr2512   2.397   1_455  S
O1127     Zr1147   2.366   1_455  S
O1127      H1154   0.966       .  S
O1128     Zr1140   2.472       .  S
O1129     Zr2539   2.456       .  S
C1130      C1224   1.519   1_565  S
O1131     Zr2535   2.445       .  S
O1131      C1133   1.287       .  A
O1132     Zr1146   2.465       .  S
O1132      C1133   1.301       .  A
C1133      C2575   1.480       .  S
O1134     Zr1143   2.499       .  S
O1134      C2528   1.296       .  A
O1135      C2528   1.297       .  A
C1136      O2526   1.297       .  A
C1136      O2527   1.296       .  A
C1136      C1197   1.515       .  S
O1137      C1139   1.280       .  A
O1138     Zr1146   2.506       .  S
O1138      C1139   1.311       .  A
Zr1140     O1152   2.402       .  S
Zr1140     O1150   2.380       .  S
Zr1140     O1142   2.434       .  S
O1141      H1161   0.990       .  S
O1141      H1166   0.990       .  S
O1142      H1162   0.990       .  S
Zr1143     O2523   2.437       .  S
Zr1143     O2541   2.392       .  S
Zr1143     O2540   2.362       .  S
Zr1143     O1153   2.370   1_655  S
Zr1143     O1151   2.400   1_655  S
Zr1143     O2536   2.434       .  S
Zr1143     O1145   2.434   1_655  S
O1144     Zr2535   2.434       .  S
O1144      H1160   0.990       .  S
O1145      H1159   0.990       .  S
O1145      H1169   0.990       .  S
Zr1146     O2507   2.570       .  S
Zr1146     O1822   2.383   1_565  S
Zr1146     O1149   2.408       .  S
Zr1146     O2543   2.401       .  S
Zr1147     O2521   2.443       .  S
Zr1147     O1844   2.375       .  S
Zr1147     O2542   2.363       .  S
O1148     Zr2535   2.365       .  S
O1148     Zr1843   2.375       .  S
O1148      H1156   0.965       .  S
O1149     Zr2535   2.392       .  S
O1150     Zr2539   2.365       .  S
O1151     Zr2538   2.398   1_455  S
O1151      H1155   0.965       .  S
O1152      H1157   0.965       .  S
C1170      C1171   1.382       .  A
C1170      C1175   1.446       .  A
C1171      C1172   1.358       .  A
C1171      H1176   1.088       .  S
C1172      C1173   1.402       .  A
C1173      C1174   1.403       .  A
C1173      H1177   1.071       .  S
C1174      C1241   1.527       .  S
C1174      C1175   1.446       .  A
C1175      H1178   1.082       .  S
C1179      C1300   1.506       .  S
C1179      C1180   1.410       .  A
C1179      C1184   1.440       .  A
C1180      C1181   1.400       .  A
C1180      H1185   1.085       .  S
C1181      C2449   1.480       .  S
C1181      C1182   1.366       .  A
C1182      C1183   1.397       .  A
C1182      H1186   1.087       .  S
C1183      C2525   1.477   1_455  S
C1183      C1184   1.440       .  A
C1184      H1187   1.082   1_455  S
C1188      C1238   1.502       .  S
C1188      C1189   1.400       .  A
C1188      C1193   1.469       .  A
C1189      C1190   1.367       .  A
C1189      H1194   1.086       .  S
C1190      C1191   1.394       .  A
C1191      C1192   1.405       .  A
C1191      H1195   1.083       .  S
C1192      C1193   1.467       .  A
C1193      H1196   1.082       .  S
C1197      C1198   1.440       .  A
C1197      C1202   1.406       .  A
C1198      C1199   1.442       .  A
C1198      H1203   1.082       .  S
C1199      C1317   1.492       .  S
C1199      C1200   1.397       .  A
C1200      C1201   1.363       .  A
C1200      H1204   1.086       .  S
C1201      C2479   1.467       .  S
C1201      C1202   1.391       .  A
C1202      H1205   1.084       .  S
C1206      C1207   1.393       .  A
C1206      C1211   1.459       .  A
C1207      C1208   1.367       .  A
C1207      H1212   1.086       .  S
C1208      C1209   1.369       .  A
C1209      C1210   1.368       .  A
C1209      H1213   1.081       .  S
C1210      C1211   1.456       .  A
C1211      H1214   1.082       .  S
C1215      C1216   1.388       .  A
C1215      C1220   1.458       .  A
C1216      C1217   1.372   1_655  A
C1216      H1221   1.086       .  S
C1217      C1218   1.353       .  A
C1218      C1219   1.372       .  A
C1218      H1222   1.074       .  S
C1219      C2718   1.514       .  S
C1219      C1220   1.458   1_455  A
C1220      H1223   1.081       .  S
C1224      C1225   1.393       .  A
C1224      C1229   1.441   1_545  A
C1225      C1226   1.389       .  A
C1225      H1230   1.083       .  S
C1226      C1227   1.354       .  A
C1227      C1228   1.389       .  A
C1227      H1231   1.088       .  S
C1228      C1264   1.484   1_545  S
C1228      C1229   1.446   1_545  A
C1229      H1232   1.082       .  S
O1236      C1238   1.289       .  A
O1237     Zr1272   2.500       .  S
O1237      C1238   1.307       .  A
O1239     Zr1248   2.496       .  S
O1242     Zr1245   2.456       .  S
O1242      C1244   1.286       .  A
O1243     Zr1272   2.525       .  S
O1243      C1244   1.313       .  A
C1244      C1357   1.518       .  S
Zr1245     O1251   2.394       .  S
Zr1245     O1252   2.387       .  S
Zr1245     O1246   2.435       .  S
O1246      H1289   0.990       .  S
O1247      H1288   0.990       .  S
O1247      H1292   0.990       .  S
Zr1248     O1276   2.365       .  S
Zr1248     O1278   2.380       .  S
Zr1248     O1250   2.435       .  S
O1249      H1290   0.990       .  S
O1249      H1293   0.990       .  S
O1250      H1283   0.990       .  S
O1252     Zr1272   2.388       .  S
O1252      H1279   0.965       .  S
O1256      C1258   1.288       .  A
O1257     Zr1271   2.457       .  S
O1257      C1258   1.299       .  A
C1258      C1388   1.488   1_556  S
O1259     Zr1268   2.442       .  S
C1261      C1366   1.485       .  S
O1262     Zr1265   2.419   1_545  S
O1262      C1264   1.276   1_545  A
O1263     Zr1271   2.451       .  S
O1263      C1264   1.301       .  A
Zr1265     O1273   2.384       .  S
Zr1265     O1274   2.381       .  S
Zr1265     O1266   2.436       .  S
O1266      H1286   0.990       .  S
O1266      H1291   0.990       .  S
O1267      H1287   0.990       .  S
Zr1268     O1278   2.385       .  S
Zr1268     O1276   2.376       .  S
Zr1268     O1270   2.438       .  S
O1269      H1285   0.990       .  S
O1270      H1284   0.990       .  S
O1270      H1294   0.990       .  S
Zr1271     O1274   2.379       .  S
O1273      H1281   0.966       .  S
O1276      H1280   0.965       .  S
O1277      H1282   0.966       .  S
O1296     Zr2725   2.518   1_455  S
C1297      C1361   1.529       .  S
O1298     Zr2702   2.483   1_455  S
O1298      C1300   1.293       .  A
O1299     Zr1334   2.461       .  S
O1299      C1300   1.298       .  A
O1301     Zr1310   2.452       .  S
O1301      C2695   1.288       .  A
O1302      C2695   1.310       .  A
C1303      O2693   1.288       .  A
C1303      O2694   1.311       .  A
O1304     Zr1307   2.464       .  S
O1304      C1306   1.284       .  A
O1305     Zr1334   2.427       .  S
O1305      C1306   1.295       .  A
Zr1307     O1313   2.387       .  S
Zr1307     O1314   2.388       .  S
Zr1307     O1308   2.435       .  S
O1308      H1351   0.990       .  S
O1309      H1350   0.990       .  S
O1309      H1354   0.990       .  S
Zr1310     O2690   2.483       .  S
Zr1310     O2706   2.383       .  S
Zr1310     O2705   2.395       .  S
Zr1310     O1338   2.380       .  S
Zr1310     O1340   2.370       .  S
Zr1310     O2703   2.435       .  S
Zr1310     O1312   2.435       .  S
O1311     Zr2702   2.435   1_455  S
O1311      H1352   0.990       .  S
O1311      H1355   0.990       .  S
O1312      H1345   0.990       .  S
O1313     Zr2702   2.395   1_455  S
O1313     Zr2377   2.385   1_455  S
O1314     Zr2702   2.383   1_455  S
O1314     Zr1334   2.381       .  S
O1314      H1341   0.966       .  S
O1315     Zr1327   2.461   1_655  S
O1315      C2709   1.286       .  A
O1316      C2709   1.299   1_455  A
C1317      O2707   1.285       .  A
C1317      O2708   1.297       .  A
O1318      C1320   1.289       .  A
O1319     Zr1333   2.456       .  S
O1319      C1320   1.299       .  A
C1320      C1379   1.486   1_556  S
O1321     Zr1330   2.447       .  S
O1322     Zr2726   2.484       .  S
C1323      C1384   1.510       .  S
O1324     Zr2719   2.425       .  S
O1324      C1326   1.276       .  A
O1325     Zr1333   2.504       .  S
O1325      C1326   1.314       .  A
C1326      C2611   1.513       .  S
Zr1327     O2716   2.428       .  S
Zr1327     O2727   2.378   1_455  S
Zr1327     O2728   2.393   1_455  S
Zr1327     O1339   2.410       .  S
Zr1327     O1337   2.378       .  S
Zr1327     O2720   2.437   1_455  S
Zr1327     O1329   2.435       .  S
O1328     Zr2719   2.436       .  S
O1328      H1348   0.990       .  S
O1328      H1353   0.990       .  S
O1329      H1349   0.990       .  S
Zr1330     O1340   2.379       .  S
Zr1330     O1338   2.389       .  S
Zr1330     O1332   2.437       .  S
O1331      H1347   0.990       .  S
O1332      H1346   0.990       .  S
O1332      H1356   0.990       .  S
Zr1333     O2688   2.517       .  S
Zr1333     O2357   2.381   1_556  S
Zr1333     O1336   2.391       .  S
Zr1333     O2731   2.386       .  S
Zr1334     O2714   2.476   1_455  S
Zr1334     O2379   2.376   1_455  S
Zr1334     O2732   2.369   1_455  S
O1335     Zr2719   2.382       .  S
O1335     Zr2378   2.380       .  S
O1335      H1343   0.966       .  S
O1336     Zr2719   2.393       .  S
O1338      H1342   0.966       .  S
O1339     Zr2725   2.388   1_455  S
O1339      H1344   0.966       .  S
O1340     Zr2726   2.369       .  S
C1357      C1358   1.401       .  A
C1357      C1362   1.473       .  A
C1358      C1359   1.377       .  A
C1358      H1363   1.082       .  S
C1359      C1360   1.385       .  A
C1360      C1361   1.396       .  A
C1360      H1364   1.075       .  S
C1361      C1362   1.471       .  A
C1362      H1365   1.082       .  S
C1366      C1367   1.398       .  A
C1366      C1371   1.441       .  A
C1367      C1368   1.371       .  A
C1367      H1372   1.087       .  S
C1368      C1369   1.370       .  A
C1369      C1370   1.400       .  A
C1369      H1373   1.084       .  S
C1370      C1371   1.441       .  A
C1371      H1374   1.082   1_556  S
C1375      C1376   1.400       .  A
C1375      C1380   1.443   1_554  A
C1376      C1377   1.397       .  A
C1376      H1381   1.086       .  S
C1377      C1378   1.367       .  A
C1378      C1379   1.397       .  A
C1378      H1382   1.086       .  S
C1379      C1380   1.444   1_554  A
C1380      H1383   1.082       .  S
C1384      C1385   1.402       .  A
C1384      C1389   1.439   1_554  A
C1385      C1386   1.399       .  A
C1385      H1390   1.086       .  S
C1386      C1387   1.372       .  A
C1387      C1388   1.397       .  A
C1387      H1391   1.086       .  S
C1388      C1389   1.439   1_554  A
C1389      H1392   1.082       .  S
O1393     Zr1429   2.404       .  S
O1393      C1404   1.293       .  A
O1394     Zr1776   2.387       .  S
O1395     Zr1401   2.419   1_655  S
O1395      C1406   1.274       .  A
O1396      C1407   1.283       .  A
O1397     Zr1431   2.458       .  S
O1397      C1407   1.298       .  A
O1398     Zr1778   2.383       .  S
O1398      C1406   1.255       .  A
O1399     Zr1401   2.501       .  S
O1399      C1405   1.305       .  A
O1400     Zr2097   2.432       .  S
O1400      C1404   1.295       .  A
Zr1401     O2096   2.412       .  S
Zr1401     O2099   2.325   1_455  S
Zr1401     O1409   2.375   1_455  S
O1402     Zr1776   2.341       .  S
O1402     Zr2127   2.309       .  S
O1403     Zr2097   2.316   1_655  S
O1403     Zr1429   2.256   1_655  S
O1403     Zr2474   2.312       .  S
C1406      C2216   1.451       .  S
C1407      C1538   1.481       .  S
H1408      O1409   0.965       .  S
O1409     Zr1778   2.373       .  S
H1410      O1411   0.955       .  S
O1411     Zr1431   2.264       .  S
O1412     Zr1428   2.495       .  S
O1412      C1435   1.305       .  A
O1413     Zr1777   2.400   1_655  S
O1414     Zr1430   2.456       .  S
O1414      C1437   1.302       .  A
O1415     Zr2127   2.429   1_556  S
O1415      C1438   1.295       .  A
O1416     Zr1431   2.407   1_556  S
O1416      C1439   1.289       .  A
O1417     Zr2126   2.341       .  S
O1417      C1440   1.282       .  A
O1418      C1441   1.262       .  A
O1419     Zr1432   2.351   1_565  S
O1419      C1442   1.275       .  A
O1420     Zr1430   2.505       .  S
O1420      C1441   1.304       .  A
O1421     Zr1779   2.352   1_565  S
O1421      C1442   1.281       .  A
O1422      C1437   1.283       .  A
O1423     Zr1777   2.502   1_655  S
O1423      C1440   1.310       .  A
O1424      C1439   1.300       .  A
O1425     Zr1776   2.423   1_556  S
O1425      C1438   1.293       .  A
O1426     Zr2128   2.324       .  S
O1426      C1435   1.269       .  A
O1427     Zr1432   2.309       .  S
O1427      C1436   1.266       .  A
Zr1428     O1742   2.336       .  S
Zr1428     O1773   2.363       .  S
Zr1428     O1750   2.337       .  S
Zr1428     O1446   2.297       .  S
Zr1429     O1761   2.398   1_454  S
Zr1429     O1771   2.509   1_455  S
Zr1429     O1792   2.320   1_454  S
Zr1430     O1746   2.387       .  S
Zr1430     O2113   2.306       .  S
Zr1430     O2447   2.320       .  S
Zr1430     O1757   2.353       .  S
Zr1430     O1434   2.288       .  S
Zr1430     O2140   2.315       .  S
Zr1431     O2111   2.368   1_545  S
Zr1431     O1769   2.339   1_544  S
Zr1431     O2098   2.292   1_545  S
Zr1431     O1781   2.282   1_554  S
Zr1431     O2490   2.347   1_544  S
Zr1432     O2122   2.330   1_545  S
Zr1432     O1433   2.251       .  S
Zr1432     O2142   2.283   1_545  S
O1433     Zr1779   2.279       .  S
C1436      C1565   1.399       .  S
C1437      C1734   1.470       .  S
C1438      C2064   1.472       .  S
C1439      C1707   1.489       .  S
C1440      C1725   1.475       .  S
C1441      C1574   1.432       .  S
C1442      C1556   1.401       .  S
H1443      O1444   0.965       .  S
O1444     Zr1777   2.314   1_655  S
O1444     Zr2126   2.316       .  S
H1445      O1446   0.965       .  S
O1446     Zr2475   2.354       .  S
O1446     Zr2128   2.280       .  S
C1447      C1458   1.515       .  S
C1447      C1448   1.403       .  A
C1447      C1452   1.466       .  A
C1448      C1449   1.387       .  A
C1448      H1453   1.082       .  S
C1449      C1450   1.377       .  A
C1450      C1451   1.403       .  A
C1450      H1454   1.086       .  S
C1451      C1651   1.507       .  S
C1451      C1452   1.466       .  A
C1452      H1455   1.082       .  S
O1456     Zr1468   2.437       .  S
O1457     Zr2190   2.537   1_545  S
O1459     Zr2167   2.460       .  S
O1459      C1461   1.283       .  A
O1460     Zr1495   2.461       .  S
O1460      C1461   1.303       .  A
C1461      C1554   1.515       .  S
O1462     Zr1471   2.445       .  S
O1462      C2160   1.283       .  A
O1463      C2160   1.316       .  A
C1464      O2158   1.282       .  A
C1464      O2159   1.319       .  A
C1464      C1540   1.527   1_565  S
O1465      C1467   1.282       .  A
O1466     Zr1495   2.451   1_545  S
O1466      C1467   1.301       .  A
C1467      C1563   1.517       .  S
Zr1468     O1498   2.375       .  S
Zr1468     O1500   2.385       .  S
Zr1468     O1470   2.437       .  S
O1469      H1512   0.990       .  S
O1470      H1511   0.990       .  S
O1470      H1515   0.990       .  S
Zr1471     O2155   2.461       .  S
Zr1471     O2171   2.398       .  S
Zr1471     O2170   2.399       .  S
Zr1471     O1499   2.381       .  S
Zr1471     O1501   2.381       .  S
Zr1471     O2168   2.436       .  S
Zr1471     O1473   2.434       .  S
O1472     Zr2167   2.436   1_545  S
O1472      H1513   0.990       .  S
O1472      H1516   0.990       .  S
O1473      H1506   0.990       .  S
O1474     Zr2167   2.400   1_545  S
O1475     Zr2167   2.395   1_545  S
O1475     Zr1495   2.366   1_545  S
O1475      H1502   0.966       .  S
O1476     Zr1488   2.469       .  S
O1476      C2174   1.287       .  A
O1477      C2174   1.299       .  A
C1478      O2172   1.288       .  A
C1478      O2173   1.298       .  A
C1478      C1572   1.516       .  S
O1479      C1481   1.287       .  A
O1480     Zr1494   2.467       .  S
O1480      C1481   1.302       .  A
O1482     Zr1491   2.508       .  S
O1483     Zr2191   2.441       .  S
C1484      C1545   1.515       .  S
O1485     Zr2184   2.423       .  S
O1485      C1487   1.280       .  A
O1486     Zr1494   2.499       .  S
O1486      C1487   1.309       .  A
C1487      C2214   1.493       .  S
Zr1488     O2181   2.423       .  S
Zr1488     O2192   2.367       .  S
Zr1488     O2193   2.389       .  S
Zr1488     O1500   2.401   1_565  S
Zr1488     O1498   2.379   1_565  S
Zr1488     O2185   2.435       .  S
Zr1488     O1490   2.434   1_565  S
O1489     Zr2184   2.436       .  S
O1489      H1509   0.990       .  S
O1489      H1514   0.990       .  S
O1490      H1510   0.990       .  S
Zr1491     O1501   2.374       .  S
Zr1491     O1499   2.401       .  S
Zr1491     O1493   2.434       .  S
O1492      H1508   0.990       .  S
O1493      H1507   0.990       .  S
O1493      H1517   0.990       .  S
Zr1494     O2153   2.551       .  S
Zr1494     O1497   2.408       .  S
Zr1494     O2196   2.397       .  S
Zr1495     O2179   2.435       .  S
Zr1495     O2197   2.364       .  S
O1496     Zr2184   2.365       .  S
O1496      H1504   0.965       .  S
O1497     Zr2184   2.389       .  S
O1499      H1503   0.966       .  S
O1500     Zr2190   2.393   1_545  S
O1500      H1505   0.966       .  S
O1501     Zr2191   2.366       .  S
C1518      C2183   1.490   1_545  S
C1518      C1519   1.381       .  A
C1518      C1523   1.442   1_545  A
C1519      C1520   1.363       .  A
C1519      H1524   1.089       .  S
C1520      C2102   1.459       .  S
C1520      C1521   1.407       .  A
C1521      C1522   1.413   1_545  A
C1521      H1525   1.075       .  S
C1522      C1589   1.528       .  S
C1522      C1523   1.443       .  A
C1523      H1526   1.082       .  S
C1527      C1648   1.500       .  S
C1527      C1528   1.403       .  A
C1527      C1532   1.440       .  A
C1528      C1529   1.389       .  A
C1528      H1533   1.086       .  S
C1529      C1530   1.373       .  A
C1530      C1531   1.397       .  A
C1530      H1534   1.087       .  S
C1531      C1532   1.441       .  A
C1532      H1535   1.082       .  S
C1536      C1586   1.506   1_545  S
C1536      C1537   1.400       .  A
C1536      C1541   1.469   1_545  A
C1537      C1538   1.369       .  A
C1537      H1542   1.086       .  S
C1538      C1539   1.392       .  A
C1539      C1540   1.402       .  A
C1539      H1543   1.082       .  S
C1540      C1541   1.467   1_545  A
C1541      H1544   1.082       .  S
C1545      C1546   1.437       .  A
C1545      C1550   1.406       .  A
C1546      C1547   1.439       .  A
C1546      H1551   1.082   1_655  S
C1547      C1665   1.483   1_655  S
C1547      C1548   1.396       .  A
C1548      C1549   1.359       .  A
C1548      H1552   1.086       .  S
C1549      C1550   1.396       .  A
C1550      H1553   1.082       .  S
C1554      C1555   1.392       .  A
C1554      C1559   1.459       .  A
C1555      C1556   1.370       .  A
C1555      H1560   1.086       .  S
C1556      C1557   1.368   1_565  A
C1557      C1558   1.364       .  A
C1557      H1561   1.082       .  S
C1558      C2299   1.518   1_545  S
C1558      C1559   1.455   1_545  A
C1559      H1562   1.082       .  S
C1563      C1564   1.386       .  A
C1563      C1568   1.456       .  A
C1564      C1565   1.368       .  A
C1564      H1569   1.086       .  S
C1565      C1566   1.355       .  A
C1566      C1567   1.375       .  A
C1566      H1570   1.077       .  S
C1567      C1568   1.456       .  A
C1568      H1571   1.082       .  S
C1572      C1573   1.392       .  A
C1572      C1577   1.438       .  A
C1573      C1574   1.390       .  A
C1573      H1578   1.082       .  S
C1574      C1575   1.358       .  A
C1575      C1576   1.392       .  A
C1575      H1579   1.087       .  S
C1576      C1612   1.485       .  S
C1576      C1577   1.444       .  A
C1577      H1580   1.082       .  S
O1581     Zr1941   2.465       .  S
O1581      C1931   1.289       .  A
O1582     Zr2315   2.491   1_545  S
O1582      C1931   1.303       .  A
C1583      O1929   1.289       .  A
C1583      O1930   1.303   1_554  A
C1583      C2071   1.507       .  S
O1584     Zr2292   2.478       .  S
O1584      C1586   1.293       .  A
O1585     Zr1620   2.491   1_554  S
O1585      C1586   1.305       .  A
O1587     Zr1596   2.487       .  S
O1587      C2285   1.294       .  A
O1588     Zr1967   2.474   1_554  S
O1588      C2285   1.301       .  A
C1589      O2283   1.298       .  A
C1589      O2284   1.299       .  A
O1590     Zr1593   2.475   1_554  S
O1590      C1592   1.291   1_554  A
O1591     Zr1620   2.516   1_545  S
O1591      C1592   1.310       .  A
C1592      C1705   1.524       .  S
Zr1593     O1929   2.465   1_556  S
Zr1593     O1599   2.384   1_556  S
Zr1593     O1600   2.381   1_556  S
Zr1593     O1971   2.384       .  S
Zr1593     O1973   2.391       .  S
Zr1593     O1594   2.434   1_556  S
Zr1593     O1943   2.435       .  S
O1594      H1637   0.990       .  S
O1595     Zr1941   2.436       .  S
O1595      H1636   0.990       .  S
O1595      H1640   0.990       .  S
Zr1596     O2280   2.448       .  S
Zr1596     O2296   2.401       .  S
Zr1596     O2295   2.379       .  S
Zr1596     O1624   2.365       .  S
Zr1596     O1626   2.387       .  S
Zr1596     O2293   2.436       .  S
Zr1596     O1598   2.435       .  S
O1597     Zr2292   2.436   1_545  S
O1597      H1638   0.990       .  S
O1597      H1641   0.990       .  S
O1598      H1631   0.990       .  S
O1599     Zr2292   2.381   1_545  S
O1599     Zr2663   2.379   1_544  S
O1600     Zr2292   2.397   1_545  S
O1600     Zr1620   2.388   1_544  S
O1600      H1627   0.966       .  S
O1601     Zr2309   2.422       .  S
O1601      C2299   1.275       .  A
O1602     Zr1968   2.514       .  S
O1602      C2299   1.316       .  A
C1603      O2297   1.274       .  A
C1603      O2298   1.316       .  A
C1603      C2254   1.516       .  S
O1604     Zr1964   2.452       .  S
O1604      C1606   1.286       .  A
O1605     Zr1619   2.465       .  S
O1605      C1606   1.301       .  A
C1606      C1736   1.491       .  S
O1607     Zr1616   2.451       .  S
O1607      C1957   1.286       .  A
O1608     Zr2316   2.448       .  S
O1608      C1957   1.299       .  A
C1609      O1955   1.280       .  A
C1609      O1956   1.308       .  A
C1609      C1714   1.503       .  S
O1610     Zr1613   2.428       .  S
O1610      C1612   1.278       .  A
O1611     Zr1619   2.436       .  S
O1611      C1612   1.298       .  A
Zr1613     O2297   2.418       .  S
Zr1613     O1621   2.392       .  S
Zr1613     O1622   2.383       .  S
Zr1613     O2321   2.380       .  S
Zr1613     O2319   2.395       .  S
Zr1613     O1614   2.435       .  S
Zr1613     O2311   2.434       .  S
O1614      H1634   0.990       .  S
O1614      H1639   0.990       .  S
O1615     Zr2309   2.434   1_545  S
O1615      H1635   0.990       .  S
Zr1616     O1952   2.460       .  S
Zr1616     O1970   2.385       .  S
Zr1616     O1969   2.391       .  S
Zr1616     O1626   2.380   1_556  S
Zr1616     O1624   2.378   1_556  S
Zr1616     O1965   2.434       .  S
Zr1616     O1618   2.436   1_556  S
O1617     Zr1964   2.434       .  S
O1617      H1633   0.990       .  S
O1618      H1632   0.990       .  S
O1618      H1642   0.990       .  S
Zr1619     O2278   2.482       .  S
Zr1619     O1936   2.486       .  S
Zr1619     O2643   2.378       .  S
Zr1619     O1622   2.376       .  S
Zr1619     O1972   2.370       .  S
Zr1619     O2321   2.380       .  S
Zr1620     O1950   2.508       .  S
Zr1620     O2304   2.468       .  S
Zr1620     O2665   2.389       .  S
Zr1620     O1971   2.374   1_565  S
Zr1620     O2322   2.386   1_556  S
O1621     Zr1964   2.396       .  S
O1621     Zr2664   2.393       .  S
O1621      H1629   0.966       .  S
O1622     Zr1964   2.376       .  S
O1623     Zr1941   2.383       .  S
O1623     Zr2309   2.392   1_545  S
O1623     Zr1968   2.375   1_545  S
O1624     Zr1967   2.382   1_554  S
O1624      H1628   0.965       .  S
O1625     Zr1941   2.384       .  S
O1625     Zr2309   2.393   1_545  S
O1625     Zr2315   2.380   1_545  S
O1625      H1630   0.966       .  S
O1626     Zr2316   2.394   1_554  S
O1643     Zr2003   2.457       .  S
O1643      C1993   1.285       .  A
O1644      C1993   1.318       .  A
C1645      O1991   1.288       .  A
C1645      O1992   1.310   1_554  A
C1645      C1709   1.523   1_554  S
O1646      C1648   1.290       .  A
O1647     Zr1682   2.458   1_554  S
O1647      C1648   1.298       .  A
O1649     Zr1658   2.452       .  S
O1650     Zr2029   2.521   1_554  S
O1652     Zr1655   2.454   1_556  S
O1652      C1654   1.286       .  A
O1653     Zr1682   2.439   1_554  S
O1653      C1654   1.295   1_554  A
C1654      C2066   1.488       .  S
Zr1655     O1991   2.474       .  S
Zr1655     O1661   2.381       .  S
Zr1655     O1662   2.382       .  S
Zr1655     O2033   2.395   1_554  S
Zr1655     O2035   2.385   1_554  S
Zr1655     O1656   2.434       .  S
Zr1655     O2005   2.438   1_554  S
O1656      H1699   0.990       .  S
O1657     Zr2003   2.438       .  S
O1657      H1698   0.990       .  S
O1657      H1702   0.990       .  S
Zr1658     O1686   2.384       .  S
Zr1658     O1688   2.369       .  S
Zr1658     O1660   2.435       .  S
O1659      H1700   0.990       .  S
O1659      H1703   0.990       .  S
O1660      H1693   0.990       .  S
O1662     Zr1682   2.379   1_554  S
O1662      H1689   0.966       .  S
O1663     Zr1675   2.444       .  S
O1664     Zr2030   2.445       .  S
O1666     Zr2026   2.458       .  S
O1666      C1668   1.289       .  A
O1667     Zr1681   2.460       .  S
O1667      C1668   1.300       .  A
C1668      C1727   1.485       .  S
O1669     Zr1678   2.476       .  S
O1669      C2019   1.291   1_556  A
O1670      C2019   1.302       .  A
C1671      O2017   1.291       .  A
C1671      O2018   1.303       .  A
C1671      C1732   1.509       .  S
O1672      C1674   1.275       .  A
O1673     Zr1681   2.504       .  S
O1673      C1674   1.314   1_655  A
Zr1675     O1687   2.402       .  S
Zr1675     O1685   2.374       .  S
Zr1675     O1677   2.435       .  S
O1676      H1696   0.990       .  S
O1676      H1701   0.990       .  S
O1677      H1697   0.990       .  S
Zr1678     O2014   2.458       .  S
Zr1678     O2032   2.383       .  S
Zr1678     O2031   2.373       .  S
Zr1678     O1688   2.384   1_556  S
Zr1678     O1686   2.386   1_556  S
Zr1678     O2027   2.434       .  S
Zr1678     O1680   2.436   1_556  S
O1679     Zr2026   2.434       .  S
O1679      H1695   0.990       .  S
O1680      H1694   0.990       .  S
O1680      H1704   0.990       .  S
Zr1681     O1998   2.526       .  S
Zr1681     O1684   2.390       .  S
Zr1681     O2034   2.392       .  S
Zr1682     O2012   2.453       .  S
Zr1682     O2033   2.373       .  S
O1683     Zr2026   2.370       .  S
O1683      H1691   0.965       .  S
O1684     Zr2026   2.382       .  S
O1685     Zr2003   2.391       .  S
O1685     Zr2030   2.373       .  S
O1686     Zr2029   2.394   1_554  S
O1686      H1690   0.966       .  S
O1687     Zr2003   2.387       .  S
O1687      H1692   0.966       .  S
C1705      C1706   1.401       .  A
C1705      C1710   1.471   1_556  A
C1706      C1707   1.384       .  A
C1706      H1711   1.080       .  S
C1707      C1708   1.377       .  A
C1708      C1709   1.392       .  A
C1708      H1712   1.075       .  S
C1709      C1710   1.469   1_556  A
C1710      H1713   1.082       .  S
C1714      C1715   1.387       .  A
C1714      C1719   1.447       .  A
C1715      C1716   1.377       .  A
C1715      H1720   1.087       .  S
C1716      C1786   1.408       .  S
C1716      C1717   1.378       .  A
C1717      C1718   1.382       .  A
C1717      H1721   1.087       .  S
C1718      C2002   1.511       .  S
C1718      C1719   1.441       .  A
C1719      H1722   1.082       .  S
C1723      C1931   1.506       .  S
C1723      C1724   1.401       .  A
C1723      C1728   1.446       .  A
C1724      C1725   1.395       .  A
C1724      H1729   1.086       .  S
C1725      C1726   1.366       .  A
C1726      C1727   1.397       .  A
C1726      H1730   1.086       .  S
C1727      C1728   1.446       .  A
C1728      H1731   1.082       .  S
C1732      C1733   1.402       .  A
C1732      C1737   1.439       .  A
C1733      C1734   1.398       .  A
C1733      H1738   1.086       .  S
C1734      C1735   1.375       .  A
C1735      C1736   1.397       .  A
C1735      H1739   1.086       .  S
C1736      C1737   1.439       .  A
C1737      H1740   1.082       .  S
O1741     Zr1777   2.427       .  S
O1741      C1752   1.297       .  A
O1743     Zr1749   2.444   1_655  S
O1743      C1754   1.283       .  A
O1744      C1755   1.282       .  A
O1745     Zr1779   2.470       .  S
O1745      C1755   1.302       .  A
O1746      C1754   1.252       .  A
O1747     Zr1749   2.501       .  S
O1747      C1753   1.306       .  A
O1748     Zr2445   2.409       .  S
O1748      C1752   1.292       .  A
Zr1749     O2444   2.411       .  S
Zr1749     O2447   2.309   1_455  S
Zr1749     O1757   2.359   1_455  S
O1750     Zr2475   2.298       .  S
O1751     Zr2445   2.325   1_655  S
O1751     Zr1777   2.267   1_655  S
O1751     Zr2126   2.322       .  S
C1754      C2564   1.452       .  S
C1755      C1886   1.483       .  S
H1756      O1757   0.965       .  S
H1758      O1759   0.955       .  S
O1759     Zr1779   2.271       .  S
O1760     Zr1776   2.444   1_556  S
O1760      C1783   1.297       .  A
O1762     Zr1778   2.476       .  S
O1762      C1785   1.304       .  A
O1763     Zr2475   2.371       .  S
O1763      C1786   1.282       .  A
O1764     Zr1779   2.428       .  S
O1764      C1787   1.293       .  A
O1765     Zr2474   2.334       .  S
O1765      C1788   1.281       .  A
O1766      C1789   1.259       .  A
O1767     Zr1780   2.371   1_565  S
O1767      C1790   1.279       .  A
O1768     Zr1778   2.506   1_556  S
O1768      C1789   1.303       .  A
O1769      C1790   1.278       .  A
O1770      C1785   1.280       .  A
O1771      C1788   1.311       .  A
O1772      C1787   1.292       .  A
O1773      C1786   1.283       .  A
O1774     Zr2476   2.384       .  S
O1774      C1783   1.284       .  A
O1775     Zr1780   2.291       .  S
O1775      C1784   1.263       .  A
Zr1776     O1794   2.291   1_554  S
Zr1778     O2461   2.334       .  S
Zr1778     O2099   2.324       .  S
Zr1778     O1782   2.294   1_554  S
Zr1778     O2488   2.321   1_554  S
Zr1779     O2459   2.371   1_545  S
Zr1779     O2446   2.298   1_545  S
Zr1779     O2142   2.354   1_545  S
Zr1780     O2470   2.342   1_545  S
Zr1780     O1781   2.255       .  S
Zr1780     O2490   2.281   1_545  S
C1784      C1913   1.393       .  S
C1785      C2082   1.472       .  S
C1787      C2055   1.488       .  S
C1788      C2073   1.473       .  S
C1789      C1922   1.431       .  S
C1790      C1904   1.407       .  S
H1791      O1792   0.966       .  S
O1792     Zr2474   2.317   1_556  S
H1793      O1794   0.961       .  S
O1794     Zr2127   2.325   1_556  S
O1794     Zr2476   2.257       .  S
C1795      C1806   1.516       .  S
C1795      C1796   1.403       .  A
C1795      C1800   1.466       .  A
C1796      C1797   1.386       .  A
C1796      H1801   1.083       .  S
C1797      C1798   1.378       .  A
C1798      C1799   1.403       .  A
C1798      H1802   1.086       .  S
C1799      C1999   1.509       .  S
C1799      C1800   1.466       .  A
C1800      H1803   1.082       .  S
O1804     Zr1816   2.433       .  S
O1805     Zr2538   2.550   1_545  S
O1807     Zr2515   2.465       .  S
O1807      C1809   1.284       .  A
O1808     Zr1843   2.451       .  S
O1808      C1809   1.301       .  A
C1809      C1902   1.516       .  S
O1810     Zr1819   2.422       .  S
O1810      C2508   1.279       .  A
O1811      C2508   1.318       .  A
C1812      O2506   1.282       .  A
C1812      O2507   1.319       .  A
C1812      C1888   1.528   1_565  S
O1813      C1815   1.284       .  A
O1814     Zr1843   2.463   1_545  S
O1814      C1815   1.303       .  A
C1815      C1911   1.519       .  S
Zr1816     O1846   2.372       .  S
Zr1816     O1848   2.385       .  S
Zr1816     O1818   2.438       .  S
O1817      H1860   0.990       .  S
O1818      H1859   0.990       .  S
O1818      H1863   0.990       .  S
Zr1819     O2503   2.447       .  S
Zr1819     O2519   2.397       .  S
Zr1819     O2518   2.398       .  S
Zr1819     O1847   2.375       .  S
Zr1819     O1849   2.377       .  S
Zr1819     O2516   2.435       .  S
Zr1819     O1821   2.434       .  S
O1820     Zr2515   2.436   1_545  S
O1820      H1861   0.990       .  S
O1820      H1864   0.990       .  S
O1821      H1854   0.990       .  S
O1822     Zr2515   2.401   1_545  S
O1823     Zr2515   2.394   1_545  S
O1823     Zr1843   2.366   1_545  S
O1823      H1850   0.966       .  S
O1824     Zr1836   2.470       .  S
O1824      C2522   1.287       .  A
O1825      C2522   1.301       .  A
C1826      O2520   1.288       .  A
C1826      O2521   1.297       .  A
C1826      C1920   1.518       .  S
O1827      C1829   1.287       .  A
O1828     Zr1842   2.466       .  S
O1828      C1829   1.302       .  A
O1830     Zr1839   2.497       .  S
O1831     Zr2539   2.443       .  S
C1832      C1893   1.515       .  S
O1833     Zr2532   2.425       .  S
O1833      C1835   1.280       .  A
O1834     Zr1842   2.502       .  S
O1834      C1835   1.310       .  A
C1835      C2562   1.494       .  S
Zr1836     O2529   2.422       .  S
Zr1836     O2540   2.366       .  S
Zr1836     O2541   2.387       .  S
Zr1836     O1848   2.402   1_565  S
Zr1836     O1846   2.379   1_565  S
Zr1836     O2533   2.436       .  S
Zr1836     O1838   2.434   1_565  S
O1837     Zr2532   2.436       .  S
O1837      H1857   0.990       .  S
O1837      H1862   0.990       .  S
O1838      H1858   0.990       .  S
Zr1839     O1849   2.369       .  S
Zr1839     O1847   2.400       .  S
Zr1839     O1841   2.434       .  S
O1840      H1856   0.990       .  S
O1841      H1855   0.990       .  S
O1841      H1865   0.990       .  S
Zr1842     O2501   2.553       .  S
Zr1842     O1845   2.408       .  S
Zr1842     O2544   2.397       .  S
Zr1843     O2527   2.439       .  S
Zr1843     O2545   2.365       .  S
O1844     Zr2532   2.364       .  S
O1844      H1852   0.965       .  S
O1845     Zr2532   2.389       .  S
O1847      H1851   0.965       .  S
O1848     Zr2538   2.395   1_545  S
O1848      H1853   0.965       .  S
O1849     Zr2539   2.362       .  S
C1866      C2531   1.493   1_545  S
C1866      C1867   1.382       .  A
C1866      C1871   1.444   1_545  A
C1867      C1868   1.364       .  A
C1867      H1872   1.089       .  S
C1868      C2450   1.452       .  S
C1868      C1869   1.400       .  A
C1869      C1870   1.404   1_545  A
C1869      H1873   1.072       .  S
C1870      C1937   1.523       .  S
C1870      C1871   1.444       .  A
C1871      H1874   1.082       .  S
C1875      C1996   1.506       .  S
C1875      C1876   1.410       .  A
C1875      C1880   1.439       .  A
C1876      C1877   1.402       .  A
C1876      H1881   1.085       .  S
C1877      C1878   1.366       .  A
C1878      C1879   1.397       .  A
C1878      H1882   1.086       .  S
C1879      C1880   1.439       .  A
C1880      H1883   1.082       .  S
C1884      C1934   1.504       .  S
C1884      C1885   1.400   1_565  A
C1884      C1889   1.470       .  A
C1885      C1886   1.367       .  A
C1885      H1890   1.086       .  S
C1886      C1887   1.394       .  A
C1887      C1888   1.405       .  A
C1887      H1891   1.083       .  S
C1888      C1889   1.469   1_545  A
C1889      H1892   1.082       .  S
C1893      C1894   1.439       .  A
C1893      C1898   1.406       .  A
C1894      C1895   1.441       .  A
C1894      H1899   1.082   1_655  S
C1895      C2013   1.491       .  S
C1895      C1896   1.397       .  A
C1896      C1897   1.363       .  A
C1896      H1900   1.086       .  S
C1897      C1898   1.392       .  A
C1898      H1901   1.084       .  S
C1902      C1903   1.393       .  A
C1902      C1907   1.459       .  A
C1903      C1904   1.366       .  A
C1903      H1908   1.086       .  S
C1904      C1905   1.369   1_565  A
C1905      C1906   1.369       .  A
C1905      H1909   1.081       .  S
C1906      C2647   1.519   1_545  S
C1906      C1907   1.455   1_545  A
C1907      H1910   1.082       .  S
C1911      C1912   1.389       .  A
C1911      C1916   1.458       .  A
C1912      C1913   1.373       .  A
C1912      H1917   1.086       .  S
C1913      C1914   1.353       .  A
C1914      C1915   1.371       .  A
C1914      H1918   1.074       .  S
C1915      C1916   1.458       .  A
C1916      H1919   1.081       .  S
C1920      C1921   1.393       .  A
C1920      C1925   1.441       .  A
C1921      C1922   1.388       .  A
C1921      H1926   1.083       .  S
C1922      C1923   1.354       .  A
C1923      C1924   1.389       .  A
C1923      H1927   1.088       .  S
C1924      C1960   1.485       .  S
C1924      C1925   1.446       .  A
C1925      H1928   1.082       .  S
O1930     Zr2663   2.489   1_545  S
O1932     Zr2640   2.467       .  S
O1932      C1934   1.290       .  A
O1933     Zr1968   2.500       .  S
O1933      C1934   1.307       .  A
O1935     Zr1944   2.491       .  S
O1935      C2633   1.294       .  A
O1936      C2633   1.304       .  A
C1937      O2631   1.294       .  A
C1937      O2632   1.301       .  A
O1938     Zr1941   2.466       .  S
O1938      C1940   1.289       .  A
O1939     Zr1968   2.524   1_545  S
O1939      C1940   1.312       .  A
C1940      C2053   1.522       .  S
Zr1941     O1947   2.383       .  S
Zr1941     O1948   2.383       .  S
Zr1941     O1942   2.434       .  S
O1942      H1985   0.990       .  S
O1943      H1984   0.990       .  S
O1943      H1988   0.990       .  S
Zr1944     O2628   2.459       .  S
Zr1944     O2644   2.396       .  S
Zr1944     O2643   2.387       .  S
Zr1944     O1972   2.365       .  S
Zr1944     O1974   2.380       .  S
Zr1944     O2641   2.436       .  S
Zr1944     O1946   2.435       .  S
O1945     Zr2640   2.436   1_545  S
O1945      H1986   0.990       .  S
O1945      H1989   0.990       .  S
O1946      H1979   0.990       .  S
O1947     Zr2640   2.385   1_545  S
O1947     Zr2315   2.379   1_545  S
O1948     Zr2640   2.394   1_545  S
O1948     Zr1968   2.388   1_545  S
O1948      H1975   0.966       .  S
O1949     Zr2657   2.431       .  S
O1949      C2647   1.277       .  A
O1950      C2647   1.314       .  A
C1951      O2645   1.275       .  A
C1951      O2646   1.325       .  A
C1951      C2602   1.529       .  S
O1952      C1954   1.289       .  A
O1953     Zr1967   2.457       .  S
O1953      C1954   1.299       .  A
C1954      C2084   1.490   1_556  S
O1955     Zr1964   2.433       .  S
O1956     Zr2664   2.480       .  S
C1957      C2062   1.485       .  S
O1958     Zr1961   2.421       .  S
O1958      C1960   1.277       .  A
O1959     Zr1967   2.450       .  S
O1959      C1960   1.301       .  A
Zr1961     O2645   2.414       .  S
Zr1961     O1969   2.385       .  S
Zr1961     O1970   2.380       .  S
Zr1961     O2669   2.385       .  S
Zr1961     O2667   2.393       .  S
Zr1961     O1962   2.436       .  S
Zr1961     O2659   2.434       .  S
O1962      H1982   0.990       .  S
O1962      H1987   0.990       .  S
O1963     Zr2657   2.434   1_545  S
O1963      H1983   0.990       .  S
Zr1964     O1974   2.386       .  S
Zr1964     O1972   2.376       .  S
Zr1964     O1966   2.438       .  S
O1965      H1981   0.990       .  S
O1966      H1980   0.990       .  S
O1966      H1990   0.990       .  S
Zr1967     O2626   2.495       .  S
Zr1967     O2295   2.380   1_556  S
Zr1967     O1970   2.379       .  S
Zr1967     O2669   2.382       .  S
Zr1968     O2652   2.479       .  S
Zr1968     O2317   2.392       .  S
Zr1968     O2670   2.385       .  S
O1969     Zr2316   2.391       .  S
O1969      H1977   0.966       .  S
O1971     Zr2657   2.394   1_545  S
O1972      H1976   0.965       .  S
O1973     Zr2657   2.394   1_545  S
O1973     Zr2663   2.381   1_545  S
O1973      H1978   0.966       .  S
O1974     Zr2664   2.385       .  S
C1993      C2057   1.531       .  S
O1994      C1996   1.293       .  A
O1995     Zr2030   2.465       .  S
O1995      C1996   1.299       .  A
O1997     Zr2006   2.443       .  S
O2000     Zr2003   2.459       .  S
O2000      C2002   1.283       .  A
O2001     Zr2030   2.437       .  S
O2001      C2002   1.297       .  A
Zr2003     O2009   2.385       .  S
Zr2003     O2010   2.389       .  S
Zr2003     O2004   2.435       .  S
O2004      H2047   0.990       .  S
O2005      H2046   0.990       .  S
O2005      H2050   0.990       .  S
Zr2006     O2034   2.384       .  S
Zr2006     O2036   2.366       .  S
Zr2006     O2008   2.435       .  S
O2007      H2048   0.990       .  S
O2007      H2051   0.990       .  S
O2008      H2041   0.990       .  S
O2010     Zr2030   2.382       .  S
O2010      H2037   0.966       .  S
O2011     Zr2023   2.464       .  S
O2014      C2016   1.289       .  A
O2015     Zr2029   2.456       .  S
O2015      C2016   1.299       .  A
C2016      C2075   1.485   1_556  S
O2017     Zr2026   2.472       .  S
C2019      C2080   1.511       .  S
O2020      C2022   1.276   1_455  A
O2021     Zr2029   2.502       .  S
O2021      C2022   1.314       .  A
Zr2023     O2035   2.411       .  S
Zr2023     O2033   2.377       .  S
Zr2023     O2025   2.435       .  S
O2024      H2044   0.990       .  S
O2024      H2049   0.990       .  S
O2025      H2045   0.990       .  S
Zr2026     O2036   2.384       .  S
Zr2026     O2034   2.382       .  S
Zr2026     O2028   2.436       .  S
O2027      H2043   0.990       .  S
O2028      H2042   0.990       .  S
O2028      H2052   0.990       .  S
Zr2029     O2032   2.390       .  S
O2031      H2039   0.966       .  S
O2034      H2038   0.965       .  S
O2035      H2040   0.966       .  S
C2053      C2054   1.401       .  A
C2053      C2058   1.475       .  A
C2054      C2055   1.378       .  A
C2054      H2059   1.082       .  S
C2055      C2056   1.384       .  A
C2056      C2057   1.395       .  A
C2056      H2060   1.074       .  S
C2057      C2058   1.473       .  A
C2058      H2061   1.081       .  S
C2062      C2063   1.398       .  A
C2062      C2067   1.442       .  A
C2063      C2064   1.371       .  A
C2063      H2068   1.087       .  S
C2064      C2065   1.370       .  A
C2065      C2066   1.400       .  A
C2065      H2069   1.085       .  S
C2066      C2067   1.441       .  A
C2067      H2070   1.082   1_556  S
C2071      C2072   1.400       .  A
C2071      C2076   1.443   1_554  A
C2072      C2073   1.397       .  A
C2072      H2077   1.086       .  S
C2073      C2074   1.367       .  A
C2074      C2075   1.397       .  A
C2074      H2078   1.086       .  S
C2075      C2076   1.443   1_554  A
C2076      H2079   1.082       .  S
C2080      C2081   1.402       .  A
C2080      C2085   1.440   1_554  A
C2081      C2082   1.399       .  A
C2081      H2086   1.086       .  S
C2082      C2083   1.372       .  A
C2083      C2084   1.397       .  A
C2083      H2087   1.086       .  S
C2084      C2085   1.440   1_554  A
C2085      H2088   1.082       .  S
O2089     Zr2125   2.424       .  S
O2089      C2100   1.296       .  A
O2090     Zr2472   2.344       .  S
O2091     Zr2097   2.441   1_655  S
O2091      C2102   1.277       .  A
O2092      C2103   1.274       .  A
O2093     Zr2127   2.409       .  S
O2093      C2103   1.280       .  A
O2094     Zr2474   2.366       .  S
O2094      C2102   1.252       .  A
O2095     Zr2097   2.451   1_565  S
O2095      C2101   1.299       .  A
O2096      C2100   1.292       .  A
Zr2097     O2105   2.379   1_445  S
O2098     Zr2472   2.339       .  S
O2099     Zr2125   2.271   1_655  S
C2103      C2234   1.479       .  S
H2104      O2105   0.965       .  S
O2105     Zr2474   2.381   1_565  S
H2106      O2107   0.958       .  S
O2107     Zr2127   2.320       .  S
O2108     Zr2124   2.491       .  S
O2108      C2131   1.305       .  A
O2109     Zr2473   2.382       .  S
O2110     Zr2126   2.467   1_565  S
O2110      C2133   1.303       .  A
O2111      C2134   1.281       .  A
O2112     Zr2127   2.418   1_556  S
O2112      C2135   1.289       .  A
O2113      C2136   1.272       .  A
O2114      C2137   1.258       .  A
O2115     Zr2128   2.344       .  S
O2115      C2138   1.274       .  A
O2116     Zr2126   2.506       .  S
O2116      C2137   1.303       .  A
O2117     Zr2475   2.354       .  S
O2117      C2138   1.282       .  A
O2118      C2133   1.282       .  A
O2119     Zr2473   2.431   1_655  S
O2119      C2136   1.292       .  A
O2120      C2135   1.297       .  A
O2121     Zr2472   2.365       .  S
O2121      C2134   1.283       .  A
O2122      C2131   1.270       .  A
O2123     Zr2128   2.311       .  S
O2123      C2132   1.267       .  A
Zr2124     O2438   2.343       .  S
Zr2124     O2469   2.365       .  S
Zr2124     O2446   2.339       .  S
Zr2124     O2142   2.293       .  S
Zr2125     O2457   2.406   1_454  S
Zr2125     O2467   2.506   1_455  S
Zr2125     O2488   2.314   1_454  S
Zr2126     O2442   2.384       .  S
Zr2126     O2453   2.375   1_545  S
Zr2126     O2130   2.297   1_545  S
Zr2127     O2465   2.286   1_554  S
Zr2127     O2477   2.278   1_554  S
Zr2128     O2129   2.249       .  S
O2129     Zr2475   2.277       .  S
C2132      C2261   1.399       .  S
C2133      C2430   1.470       .  S
C2134      C2760   1.411       .  S
C2135      C2403   1.490       .  S
C2136      C2421   1.400       .  S
C2137      C2270   1.426       .  S
C2138      C2252   1.400       .  S
H2139      O2140   0.964       .  S
O2140     Zr2473   2.309   1_655  S
H2141      O2142   0.965       .  S
C2143      C2154   1.512       .  S
C2143      C2144   1.398       .  A
C2143      C2148   1.462       .  A
C2144      C2145   1.383       .  A
C2144      H2149   1.081       .  S
C2145      C2146   1.384       .  A
C2146      C2147   1.404       .  A
C2146      H2150   1.086       .  S
C2147      C2347   1.509       .  S
C2147      C2148   1.463       .  A
C2148      H2151   1.082       .  S
O2152     Zr2164   2.432       .  S
O2155      C2157   1.284       .  A
O2156     Zr2191   2.462       .  S
O2156      C2157   1.303       .  A
C2157      C2250   1.515       .  S
O2158     Zr2167   2.436       .  S
C2160      C2236   1.525       .  S
O2161      C2163   1.284       .  A
O2162     Zr2191   2.453       .  S
O2162      C2163   1.301       .  A
C2163      C2259   1.520       .  S
Zr2164     O2194   2.373       .  S
Zr2164     O2196   2.385       .  S
Zr2164     O2166   2.438       .  S
O2165      H2208   0.990       .  S
O2166      H2207   0.990       .  S
O2166      H2211   0.990       .  S
Zr2167     O2195   2.378       .  S
Zr2167     O2197   2.377       .  S
Zr2167     O2169   2.434       .  S
O2168      H2209   0.990       .  S
O2168      H2212   0.990       .  S
O2169      H2202   0.990       .  S
O2171     Zr2191   2.370       .  S
O2171      H2198   0.966       .  S
O2172     Zr2184   2.474       .  S
C2174      C2268   1.513       .  S
O2175      C2177   1.288       .  A
O2176     Zr2190   2.461       .  S
O2176      C2177   1.300       .  A
O2178     Zr2187   2.510       .  S
C2180      C2241   1.515       .  S
O2181      C2183   1.280       .  A
O2182     Zr2190   2.487       .  S
O2182      C2183   1.307       .  A
Zr2184     O2196   2.403       .  S
Zr2184     O2194   2.378       .  S
Zr2184     O2186   2.434       .  S
O2185      H2205   0.990       .  S
O2185      H2210   0.990       .  S
O2186      H2206   0.990       .  S
Zr2187     O2197   2.372       .  S
Zr2187     O2195   2.403       .  S
Zr2187     O2189   2.434       .  S
O2188      H2204   0.990       .  S
O2189      H2203   0.990       .  S
O2189      H2213   0.990       .  S
Zr2190     O2193   2.401       .  S
O2192      H2200   0.965       .  S
O2195      H2199   0.965       .  S
O2196      H2201   0.965       .  S
C2214      C2215   1.381       .  A
C2214      C2219   1.443       .  A
C2215      C2216   1.364       .  A
C2215      H2220   1.089       .  S
C2216      C2217   1.400       .  A
C2217      C2218   1.404       .  A
C2217      H2221   1.073       .  S
C2218      C2285   1.521       .  S
C2218      C2219   1.444       .  A
C2219      H2222   1.082       .  S
C2223      C2344   1.512       .  S
C2223      C2224   1.409       .  A
C2223      C2228   1.443       .  A
C2224      C2225   1.399       .  A
C2224      H2229   1.085       .  S
C2225      C2226   1.366       .  A
C2226      C2227   1.397       .  A
C2226      H2230   1.087       .  S
C2227      C2228   1.444       .  A
C2228      H2231   1.082       .  S
C2232      C2282   1.508       .  S
C2232      C2233   1.398       .  A
C2232      C2237   1.468       .  A
C2233      C2234   1.366       .  A
C2233      H2238   1.087       .  S
C2234      C2235   1.388       .  A
C2235      C2236   1.396       .  A
C2235      H2239   1.070       .  S
C2236      C2237   1.467       .  A
C2237      H2240   1.082       .  S
C2241      C2242   1.439       .  A
C2241      C2246   1.406       .  A
C2242      C2243   1.441       .  A
C2242      H2247   1.082   1_655  S
C2243      C2361   1.489       .  S
C2243      C2244   1.396       .  A
C2244      C2245   1.362       .  A
C2244      H2248   1.086       .  S
C2245      C2246   1.393       .  A
C2246      H2249   1.083       .  S
C2250      C2251   1.392       .  A
C2250      C2255   1.458       .  A
C2251      C2252   1.371       .  A
C2251      H2256   1.086       .  S
C2252      C2253   1.368       .  A
C2253      C2254   1.364       .  A
C2253      H2257   1.082       .  S
C2254      C2255   1.455       .  A
C2255      H2258   1.082       .  S
C2259      C2260   1.387       .  A
C2259      C2264   1.457       .  A
C2260      C2261   1.369       .  A
C2260      H2265   1.086       .  S
C2261      C2262   1.355       .  A
C2262      C2263   1.374       .  A
C2262      H2266   1.077       .  S
C2263      C2264   1.457       .  A
C2264      H2267   1.081       .  S
C2268      C2269   1.391   1_565  A
C2268      C2273   1.439   1_565  A
C2269      C2270   1.389       .  A
C2269      H2274   1.083   1_545  S
C2270      C2271   1.357       .  A
C2271      C2272   1.389       .  A
C2271      H2275   1.088       .  S
C2272      C2308   1.485       .  S
C2272      C2273   1.444       .  A
C2273      H2276   1.082   1_545  S
O2277     Zr2637   2.466       .  S
O2277      C2627   1.285       .  A
O2278      C2627   1.307       .  A
C2279      O2625   1.287       .  A
C2279      O2626   1.304       .  A
C2279      C2767   1.500   1_556  S
O2280      C2282   1.285       .  A
O2281     Zr2316   2.515   1_554  S
O2281      C2282   1.311       .  A
O2283     Zr2292   2.507       .  S
O2284     Zr2663   2.469   1_554  S
O2286     Zr2289   2.470       .  S
O2286      C2288   1.290       .  A
O2287     Zr2316   2.498       .  S
O2287      C2288   1.306       .  A
C2288      C2401   1.512       .  S
Zr2289     O2625   2.451       .  S
Zr2289     O2295   2.386   1_556  S
Zr2289     O2296   2.377   1_556  S
Zr2289     O2667   2.378       .  S
Zr2289     O2669   2.388       .  S
Zr2289     O2290   2.434   1_556  S
Zr2289     O2639   2.436       .  S
O2290      H2333   0.990       .  S
O2291     Zr2637   2.436       .  S
O2291      H2332   0.990       .  S
O2291      H2336   0.990       .  S
Zr2292     O2320   2.373       .  S
Zr2292     O2322   2.382       .  S
Zr2292     O2294   2.435       .  S
O2293      H2334   0.990       .  S
O2293      H2337   0.990       .  S
O2294      H2327   0.990       .  S
O2296     Zr2316   2.389   1_554  S
O2296      H2323   0.966       .  S
O2298     Zr2664   2.513       .  S
O2300     Zr2660   2.442       .  S
O2300      C2302   1.285       .  A
O2301     Zr2315   2.450       .  S
O2301      C2302   1.297       .  A
C2302      C2432   1.478       .  S
O2303     Zr2312   2.440       .  S
O2303      C2653   1.280   1_556  A
O2304      C2653   1.305   1_556  A
C2305      O2651   1.280       .  A
C2305      O2652   1.308       .  A
C2305      C2410   1.505       .  S
O2306     Zr2309   2.418   1_545  S
O2306      C2308   1.276       .  A
O2307     Zr2315   2.444       .  S
O2307      C2308   1.300   1_565  A
Zr2309     O2317   2.391       .  S
Zr2309     O2318   2.385       .  S
Zr2309     O2310   2.436       .  S
O2310      H2330   0.990       .  S
O2310      H2335   0.990       .  S
O2311      H2331   0.990       .  S
Zr2312     O2648   2.446       .  S
Zr2312     O2666   2.383       .  S
Zr2312     O2665   2.393       .  S
Zr2312     O2322   2.383   1_556  S
Zr2312     O2320   2.382   1_556  S
Zr2312     O2661   2.434       .  S
Zr2312     O2314   2.438   1_556  S
O2313     Zr2660   2.434       .  S
O2313      H2329   0.990       .  S
O2314      H2328   0.990       .  S
O2314      H2338   0.990       .  S
Zr2315     O2632   2.474       .  S
Zr2315     O2318   2.381       .  S
Zr2315     O2668   2.379       .  S
Zr2316     O2646   2.568       .  S
Zr2316     O2667   2.374       .  S
O2317     Zr2660   2.392       .  S
O2317      H2325   0.966       .  S
O2318     Zr2660   2.381       .  S
O2319     Zr2637   2.387       .  S
O2319     Zr2664   2.373       .  S
O2320     Zr2663   2.380   1_554  S
O2320      H2324   0.965       .  S
O2321     Zr2637   2.389       .  S
O2321      H2326   0.965       .  S
O2339     Zr2699   2.457       .  S
O2339      C2689   1.285       .  A
O2340      C2689   1.318       .  A
C2341      O2687   1.284   1_556  A
C2341      O2688   1.311       .  A
C2341      C2405   1.515       .  S
O2342      C2344   1.294       .  A
O2343     Zr2378   2.463   1_554  S
O2343      C2344   1.299       .  A
O2345     Zr2354   2.440       .  S
O2346     Zr2725   2.532   1_554  S
O2348     Zr2351   2.445       .  S
O2348      C2350   1.280       .  A
O2349     Zr2378   2.445       .  S
O2349      C2350   1.299       .  A
C2350      C2762   1.506       .  S
Zr2351     O2687   2.454   1_556  S
Zr2351     O2357   2.380   1_556  S
Zr2351     O2358   2.390   1_556  S
Zr2351     O2729   2.395       .  S
Zr2351     O2731   2.387       .  S
Zr2351     O2352   2.435   1_556  S
Zr2351     O2701   2.438       .  S
O2352      H2395   0.990       .  S
O2353     Zr2699   2.438       .  S
O2353      H2394   0.990       .  S
O2353      H2398   0.990       .  S
Zr2354     O2382   2.380       .  S
Zr2354     O2384   2.368       .  S
Zr2354     O2356   2.435       .  S
O2355      H2396   0.990       .  S
O2355      H2399   0.990       .  S
O2356      H2389   0.990       .  S
O2358     Zr2378   2.379   1_554  S
O2358      H2385   0.966       .  S
O2359     Zr2371   2.445       .  S
O2360     Zr2726   2.444       .  S
O2362     Zr2722   2.422       .  S
O2362      C2364   1.278       .  A
O2363     Zr2377   2.501       .  S
O2363      C2364   1.314       .  A
C2364      C2423   1.503       .  S
O2365     Zr2374   2.466       .  S
O2365      C2715   1.289       .  A
O2366      C2715   1.296       .  A
C2367      O2713   1.285       .  A
C2367      O2714   1.301       .  A
C2367      C2428   1.495       .  S
O2368      C2370   1.278   1_455  A
O2369     Zr2377   2.500       .  S
O2369      C2370   1.314       .  A
Zr2371     O2383   2.400       .  S
Zr2371     O2381   2.375       .  S
Zr2371     O2373   2.435       .  S
O2372      H2392   0.990       .  S
O2372      H2397   0.990       .  S
O2373      H2393   0.990       .  S
Zr2374     O2710   2.447       .  S
Zr2374     O2728   2.381       .  S
Zr2374     O2727   2.371       .  S
Zr2374     O2384   2.384   1_556  S
Zr2374     O2382   2.382   1_556  S
Zr2374     O2723   2.434       .  S
Zr2374     O2376   2.436   1_556  S
O2375     Zr2722   2.434       .  S
O2375      H2391   0.990       .  S
O2376      H2390   0.990       .  S
O2376      H2400   0.990       .  S
Zr2377     O2694   2.524       .  S
Zr2377     O2380   2.390       .  S
Zr2377     O2730   2.391       .  S
Zr2378     O2708   2.439       .  S
Zr2378     O2729   2.371       .  S
O2379     Zr2722   2.364       .  S
O2379      H2387   0.965       .  S
O2380     Zr2722   2.388       .  S
O2381     Zr2699   2.390       .  S
O2381     Zr2726   2.373       .  S
O2382     Zr2725   2.391   1_554  S
O2382      H2386   0.965       .  S
O2383     Zr2699   2.388       .  S
O2383      H2388   0.966       .  S
C2401      C2402   1.401       .  A
C2401      C2406   1.465   1_556  A
C2402      C2403   1.381       .  A
C2402      H2407   1.080       .  S
C2403      C2404   1.378       .  A
C2404      C2405   1.393       .  A
C2404      H2408   1.073       .  S
C2405      C2406   1.464   1_556  A
C2406      H2409   1.082       .  S
C2410      C2411   1.387       .  A
C2410      C2415   1.448       .  A
C2411      C2412   1.377       .  A
C2411      H2416   1.087       .  S
C2412      C2482   1.409       .  S
C2412      C2413   1.377       .  A
C2413      C2414   1.382       .  A
C2413      H2417   1.087       .  S
C2414      C2698   1.512       .  S
C2414      C2415   1.442       .  A
C2415      H2418   1.082       .  S
C2419      C2627   1.525       .  S
C2419      C2420   1.372       .  A
C2419      C2424   1.450       .  A
C2420      C2421   1.383       .  A
C2420      H2425   1.085       .  S
C2421      C2422   1.361       .  A
C2422      C2423   1.384       .  A
C2422      H2426   1.088       .  S
C2423      C2424   1.459       .  A
C2424      H2427   1.082       .  S
C2428      C2429   1.401       .  A
C2428      C2433   1.432       .  A
C2429      C2430   1.398       .  A
C2429      H2434   1.086       .  S
C2430      C2431   1.375       .  A
C2431      C2432   1.398       .  A
C2431      H2435   1.086       .  S
C2432      C2433   1.431       .  A
C2433      H2436   1.082       .  S
O2437     Zr2473   2.420       .  S
O2437      C2448   1.295       .  A
O2439     Zr2445   2.424   1_655  S
O2439      C2450   1.274       .  A
O2440      C2451   1.283       .  A
O2441     Zr2475   2.466       .  S
O2441      C2451   1.302       .  A
O2442      C2450   1.255       .  A
O2443     Zr2445   2.501   1_565  S
O2443      C2449   1.305       .  A
O2444      C2448   1.293       .  A
Zr2445     O2453   2.371   1_445  S
O2447     Zr2473   2.276   1_655  S
C2451      C2582   1.483       .  S
H2452      O2453   0.965       .  S
H2454      O2455   0.955       .  S
O2455     Zr2475   2.271       .  S
O2456     Zr2472   2.477   1_556  S
O2456      C2479   1.302       .  A
O2458     Zr2474   2.443   1_565  S
O2458      C2481   1.297       .  A
O2459      C2482   1.282       .  A
O2460     Zr2475   2.432       .  S
O2460      C2483   1.294       .  A
O2461      C2484   1.282       .  A
O2462      C2485   1.258       .  A
O2463     Zr2476   2.376       .  S
O2463      C2486   1.281       .  A
O2464     Zr2474   2.501   1_556  S
O2464      C2485   1.302       .  A
O2465      C2486   1.267       .  A
O2466      C2481   1.289       .  A
O2467      C2484   1.311       .  A
O2468      C2483   1.291       .  A
O2469      C2482   1.283       .  A
O2470      C2479   1.273       .  A
O2471     Zr2476   2.313       .  S
O2471      C2480   1.261       .  A
Zr2472     O2490   2.290   1_554  S
Zr2474     O2478   2.285   1_544  S
Zr2476     O2477   2.259       .  S
C2480      C2609   1.394       .  S
C2481      C2778   1.469       .  S
C2483      C2751   1.487       .  S
C2484      C2769   1.475       .  S
C2485      C2618   1.422       .  S
C2486      C2600   1.389       .  S
H2487      O2488   0.965       .  S
H2489      O2490   0.965       .  S
C2491      C2502   1.516       .  S
C2491      C2492   1.403       .  A
C2491      C2496   1.465       .  A
C2492      C2493   1.387       .  A
C2492      H2497   1.083       .  S
C2493      C2494   1.378       .  A
C2494      C2495   1.403       .  A
C2494      H2498   1.086       .  S
C2495      C2695   1.507       .  S
C2495      C2496   1.466       .  A
C2496      H2499   1.082       .  S
O2500     Zr2512   2.434       .  S
O2503      C2505   1.278       .  A
O2504     Zr2539   2.473       .  S
O2504      C2505   1.307       .  A
C2505      C2598   1.521       .  S
O2506     Zr2515   2.436       .  S
C2508      C2584   1.519       .  S
O2509      C2511   1.284       .  A
O2510     Zr2539   2.464       .  S
O2510      C2511   1.304       .  A
C2511      C2607   1.522       .  S
Zr2512     O2542   2.374       .  S
Zr2512     O2544   2.386       .  S
Zr2512     O2514   2.437       .  S
O2513      H2556   0.990       .  S
O2514      H2555   0.990       .  S
O2514      H2559   0.990       .  S
Zr2515     O2543   2.379       .  S
Zr2515     O2545   2.377       .  S
Zr2515     O2517   2.434       .  S
O2516      H2557   0.990       .  S
O2516      H2560   0.990       .  S
O2517      H2550   0.990       .  S
O2519     Zr2539   2.368       .  S
O2519      H2546   0.966       .  S
O2520     Zr2532   2.478       .  S
C2522      C2616   1.518       .  S
O2523      C2525   1.285       .  A
O2524     Zr2538   2.465       .  S
O2524      C2525   1.302       .  A
O2526     Zr2535   2.505       .  S
C2528      C2589   1.510       .  S
O2529      C2531   1.280       .  A
O2530     Zr2538   2.499       .  S
O2530      C2531   1.309       .  A
Zr2532     O2544   2.404       .  S
Zr2532     O2542   2.381       .  S
Zr2532     O2534   2.434       .  S
O2533      H2553   0.990       .  S
O2533      H2558   0.990       .  S
O2534      H2554   0.990       .  S
Zr2535     O2545   2.372       .  S
Zr2535     O2543   2.401       .  S
Zr2535     O2537   2.435       .  S
O2536      H2552   0.990       .  S
O2537      H2551   0.990       .  S
O2537      H2561   0.990       .  S
Zr2538     O2541   2.407       .  S
O2540      H2548   0.965       .  S
O2543      H2547   0.965       .  S
O2544      H2549   0.965       .  S
C2562      C2563   1.381       .  A
C2562      C2567   1.447       .  A
C2563      C2564   1.360       .  A
C2563      H2568   1.089       .  S
C2564      C2565   1.403       .  A
C2565      C2566   1.403       .  A
C2565      H2569   1.073       .  S
C2566      C2633   1.529       .  S
C2566      C2567   1.448       .  A
C2567      H2570   1.082       .  S
C2571      C2692   1.508       .  S
C2571      C2572   1.409       .  A
C2571      C2576   1.442       .  A
C2572      C2573   1.400       .  A
C2572      H2577   1.085       .  S
C2573      C2574   1.367       .  A
C2574      C2575   1.398       .  A
C2574      H2578   1.087       .  S
C2575      C2576   1.441       .  A
C2576      H2579   1.082       .  S
C2580      C2630   1.498       .  S
C2580      C2581   1.401       .  A
C2580      C2585   1.465       .  A
C2581      C2582   1.368       .  A
C2581      H2586   1.086       .  S
C2582      C2583   1.393       .  A
C2583      C2584   1.405       .  A
C2583      H2587   1.083       .  S
C2584      C2585   1.464       .  A
C2585      H2588   1.082       .  S
C2589      C2590   1.443       .  A
C2589      C2594   1.403       .  A
C2590      C2591   1.443       .  A
C2590      H2595   1.082   1_655  S
C2591      C2709   1.500       .  S
C2591      C2592   1.398       .  A
C2592      C2593   1.371       .  A
C2592      H2596   1.086       .  S
C2593      C2594   1.385       .  A
C2594      H2597   1.085       .  S
C2598      C2599   1.378       .  A
C2598      C2603   1.463       .  A
C2599      C2600   1.363       .  A
C2599      H2604   1.087       .  S
C2600      C2601   1.382       .  A
C2601      C2602   1.366       .  A
C2601      H2605   1.078       .  S
C2602      C2603   1.462       .  A
C2603      H2606   1.081       .  S
C2607      C2608   1.387       .  A
C2607      C2612   1.460       .  A
C2608      C2609   1.369       .  A
C2608      H2613   1.086       .  S
C2609      C2610   1.350       .  A
C2610      C2611   1.373       .  A
C2610      H2614   1.074       .  S
C2611      C2612   1.460       .  A
C2612      H2615   1.082       .  S
C2616      C2617   1.390   1_565  A
C2616      C2621   1.444       .  A
C2617      C2618   1.385       .  A
C2617      H2622   1.083   1_545  S
C2618      C2619   1.355       .  A
C2619      C2620   1.390       .  A
C2619      H2623   1.088       .  S
C2620      C2656   1.489   1_545  S
C2620      C2621   1.448   1_545  A
C2621      H2624   1.082       .  S
O2628      C2630   1.289       .  A
O2629     Zr2664   2.494       .  S
O2629      C2630   1.306       .  A
O2631     Zr2640   2.490       .  S
O2634     Zr2637   2.458       .  S
O2634      C2636   1.287       .  A
O2635     Zr2664   2.527       .  S
O2635      C2636   1.313       .  A
C2636      C2749   1.520       .  S
Zr2637     O2643   2.395       .  S
Zr2637     O2644   2.385       .  S
Zr2637     O2638   2.435       .  S
O2638      H2681   0.990       .  S
O2639      H2680   0.990       .  S
O2639      H2684   0.990       .  S
Zr2640     O2668   2.369       .  S
Zr2640     O2670   2.378       .  S
Zr2640     O2642   2.435       .  S
O2641      H2682   0.990       .  S
O2641      H2685   0.990       .  S
O2642      H2675   0.990       .  S
O2644     Zr2664   2.389       .  S
O2644      H2671   0.965       .  S
O2648      C2650   1.285       .  A
O2649     Zr2663   2.451       .  S
O2649      C2650   1.298       .  A
C2650      C2780   1.485   1_556  S
O2651     Zr2660   2.436       .  S
C2653      C2758   1.502       .  S
O2654     Zr2657   2.430   1_545  S
O2654      C2656   1.278   1_545  A
O2655     Zr2663   2.444       .  S
O2655      C2656   1.300       .  A
Zr2657     O2665   2.394       .  S
Zr2657     O2666   2.385       .  S
Zr2657     O2658   2.436       .  S
O2658      H2678   0.990       .  S
O2658      H2683   0.990       .  S
O2659      H2679   0.990       .  S
Zr2660     O2670   2.384       .  S
Zr2660     O2668   2.378       .  S
Zr2660     O2662   2.438       .  S
O2661      H2677   0.990       .  S
O2662      H2676   0.990       .  S
O2662      H2686   0.990       .  S
Zr2663     O2666   2.378       .  S
O2665      H2673   0.966       .  S
O2668      H2672   0.965       .  S
O2669      H2674   0.966       .  S
C2689      C2753   1.530       .  S
O2690      C2692   1.293       .  A
O2691     Zr2726   2.468       .  S
O2691      C2692   1.300       .  A
O2693     Zr2702   2.453       .  S
O2696     Zr2699   2.462       .  S
O2696      C2698   1.283       .  A
O2697     Zr2726   2.437       .  S
O2697      C2698   1.297       .  A
Zr2699     O2705   2.386       .  S
Zr2699     O2706   2.389       .  S
Zr2699     O2700   2.435       .  S
O2700      H2743   0.990       .  S
O2701      H2742   0.990       .  S
O2701      H2746   0.990       .  S
Zr2702     O2730   2.381       .  S
Zr2702     O2732   2.371       .  S
Zr2702     O2704   2.435       .  S
O2703      H2744   0.990       .  S
O2703      H2747   0.990       .  S
O2704      H2737   0.990       .  S
O2706     Zr2726   2.381       .  S
O2706      H2733   0.966       .  S
O2707     Zr2719   2.456       .  S
O2710      C2712   1.287       .  A
O2711     Zr2725   2.460       .  S
O2711      C2712   1.300       .  A
C2712      C2771   1.479   1_556  S
O2713     Zr2722   2.446       .  S
C2715      C2776   1.495   1_556  S
O2716      C2718   1.277       .  A
O2717     Zr2725   2.499       .  S
O2717      C2718   1.313   1_655  A
Zr2719     O2731   2.410       .  S
Zr2719     O2729   2.375       .  S
Zr2719     O2721   2.435       .  S
O2720      H2740   0.990       .  S
O2720      H2745   0.990       .  S
O2721      H2741   0.990       .  S
Zr2722     O2732   2.378       .  S
Zr2722     O2730   2.389       .  S
Zr2722     O2724   2.436       .  S
O2723      H2739   0.990       .  S
O2724      H2738   0.990       .  S
O2724      H2748   0.990       .  S
Zr2725     O2728   2.392       .  S
O2727      H2735   0.965       .  S
O2730      H2734   0.966       .  S
O2731      H2736   0.966       .  S
C2749      C2750   1.401       .  A
C2749      C2754   1.474       .  A
C2750      C2751   1.378       .  A
C2750      H2755   1.082       .  S
C2751      C2752   1.385       .  A
C2752      C2753   1.397       .  A
C2752      H2756   1.075       .  S
C2753      C2754   1.472       .  A
C2754      H2757   1.082       .  S
C2758      C2759   1.387       .  A
C2758      C2763   1.445   1_554  A
C2759      C2760   1.377       .  A
C2759      H2764   1.087       .  S
C2760      C2761   1.376   1_554  A
C2761      C2762   1.381       .  A
C2761      H2765   1.087       .  S
C2762      C2763   1.442       .  A
C2763      H2766   1.082       .  S
C2767      C2768   1.402       .  A
C2767      C2772   1.442   1_554  A
C2768      C2769   1.396       .  A
C2768      H2773   1.086       .  S
C2769      C2770   1.366       .  A
C2770      C2771   1.397       .  A
C2770      H2774   1.086       .  S
C2771      C2772   1.442   1_554  A
C2772      H2775   1.082       .  S
C2776      C2777   1.402       .  A
C2776      C2781   1.435   1_554  A
C2777      C2778   1.386       .  A
C2777      H2782   1.086       .  S
C2778      C2779   1.375       .  A
C2779      C2780   1.398       .  A
C2779      H2783   1.086       .  S
C2780      C2781   1.435   1_554  A
C2781      H2784   1.082       .  S
