geometry optimzed in LAMMPS
_audit_creation_date              2020-11-30 
_audit_creation_method            'lammps2cif' 
_symmetry_space_group_name_H-M    'P1' 
_symmetry_Int_Tables_number       1 
_symmetry_cell_setting            triclinic 
loop_ 
_symmetry_equiv_pos_as_xyz 
  x,y,z 
_cell_length_a                    37.77752241812843 
_cell_length_b                    37.619357972313516 
_cell_length_c                    37.19229369215504 
_cell_angle_alpha                 89.94372294394422 
_cell_angle_beta                  90.07183536368176 
_cell_angle_gamma                 119.10243109349878 
loop_ 
_atom_site_label 
_atom_site_type_symbol 
_atom_site_fract_x 
_atom_site_fract_y 
_atom_site_fract_z 
_atom_site_charge 
C1          C  0.47236951  0.87675778  0.03625378     0.04060
C2          C  0.47425219  0.89633967  0.00389723    -0.12080
C3          C  0.48041816  0.88141122  0.47128608     0.01570
C4          C  0.48480119  0.84632093  0.47182607    -0.10610
C5          C  0.47888282  0.82377088  0.50387383     0.04060
C6          C  0.47292352  0.83994971  0.03608513    -0.10030
H7          H  0.47059362  0.92318047  0.00424955     0.09650
H8          H  0.49197518  0.83649734  0.44690700     0.07180
H9          H  0.46780516  0.82421629  0.06142128     0.07030
C10         C  0.23563478  0.86258291  0.03043346     0.04060
C11         C  0.24656060  0.88276919  0.99721244    -0.12080
C12         C  0.22986927  0.86195787  0.46520266     0.01570
C13         C  0.19615624  0.82330112  0.46630381    -0.10610
C14         C  0.18075181  0.80304327  0.99937135     0.04060
C15         C  0.20302378  0.82221319  0.03103765    -0.10030
H16         H  0.27028304  0.91415507  0.99566590     0.09650
H17         H  0.18313439  0.80984799  0.44077856     0.07180
H18         H  0.19575540  0.80590246  0.05620498     0.07030
O19         O  0.31949024  0.93985483  0.31203891    -0.74360
O20         O  0.36659195  0.97974488  0.35367537    -0.53260
C21         C  0.33178377  0.94992460  0.34466929     0.79370
O22         O  0.46362345  0.95002933  0.19451200    -0.58960
O23         O  0.44444896  0.98168659  0.15249512    -0.51990
C24         C  0.45696859  0.95682234  0.16204732     0.71390
O25         O  0.46365279  0.95369148  0.31457790    -0.73520
O26         O  0.44797691  0.98935019  0.35514618    -0.54080
C27         C  0.45969732  0.96343608  0.34691556     0.77390
O28         O  0.32000127  0.93587102  0.19064647    -0.58660
O29         O  0.36544114  0.98003899  0.15063207    -0.51780
C30         C  0.33200304  0.94801042  0.15821223     0.73980
Zr31       Zr  0.34517078  0.96280190  0.25133306     2.54710
O32         O  0.31012781  0.88881377  0.25352445    -0.79230
O33         O  0.28245586  0.96589358  0.24745137    -0.92640
Zr34       Zr  0.45520835  0.97244504  0.25358260     2.64680
O35         O  0.42363224  0.89856247  0.25551017    -0.97600
O36         O  0.52373206  0.98191486  0.25391820    -0.79660
O37         O  0.39971125  0.96766137  0.28708790    -0.83020
O38         O  0.40004965  0.96605475  0.21819426    -2.17730
O39         O  0.38690751  0.10202841  0.18896971    -0.66410
O40         O  0.40352765  0.06706430  0.14832298    -0.50970
C41         C  0.39116709  0.09240402  0.15668454     0.72360
O42         O  0.53356634  0.11641952  0.30967231    -0.59310
O43         O  0.48524601  0.08034821  0.35195330    -0.51290
C44         C  0.52091692  0.10795963  0.34226824     0.74170
O45         O  0.53260822  0.10987298  0.18842967    -0.70710
O46         O  0.48332890  0.07178918  0.14794834    -0.49390
C47         C  0.51956567  0.09907057  0.15598328     0.75550
O48         O  0.38532839  0.10356280  0.30945052    -0.66040
O49         O  0.40158961  0.07009771  0.35208270    -0.53240
C50         C  0.38888816  0.09477878  0.34220934     0.73930
Zr51       Zr  0.39592748  0.08355992  0.24990316     2.77540
O52         O  0.42862909  0.15748366  0.25111738    -0.96790
O53         O  0.32809414  0.07578916  0.24864634    -0.77610
Zr54       Zr  0.50554734  0.09288848  0.24998815     2.70070
O55         O  0.53164324  0.16609010  0.24766704    -0.78860
O56         O  0.57288541  0.09943979  0.25214917    -0.97940
Zr57       Zr  0.42546697  0.02943017  0.32027839     2.21500
Zr58       Zr  0.42520288  0.02653556  0.18326393     2.11130
O59         O  0.45108345  0.08876140  0.21543204    -2.46630
O60         O  0.45121176  0.08963723  0.28482727    -0.78650
O61         O  0.36950078  0.02254725  0.21594412    -0.70840
O62         O  0.48114875  0.03377226  0.28667187    -2.31800
O63         O  0.36980314  0.02366032  0.28552407    -2.28010
O64         O  0.48102892  0.03161538  0.21694702    -0.72600
H65         H  0.39028755  0.94219692  0.20318040     0.79390
H66         H  0.50244495  0.03601885  0.30248275     0.80480
H67         H  0.46093786  0.11175295  0.19929587     0.82710
H68         H  0.34849254  0.02201080  0.30093329     0.80310
H69         H  0.53992657  0.00731797  0.26765315     0.43350
H70         H  0.57255694  0.08072427  0.23328700     0.42320
H71         H  0.51846931  0.17190908  0.26810296     0.42000
H72         H  0.45315927  0.16658210  0.23613028     0.39930
H73         H  0.31347994  0.05465701  0.23020509     0.43060
H74         H  0.28354466  0.98324601  0.26786806     0.37850
H75         H  0.33199094  0.88159439  0.25144424     0.43960
H76         H  0.40502541  0.88894191  0.23462326     0.40380
H77         H  0.41063594  0.16441076  0.23691509     0.45300
H78         H  0.26115110  0.93817555  0.25406950     0.44020
H79         H  0.44560646  0.89252551  0.24915914     0.44160
H80         H  0.59108035  0.12700958  0.24260691     0.44510
C81         C  0.35919059  0.16671929  0.03278630     0.04060
C82         C  0.35432887  0.20155114  0.03282761    -0.12080
C83         C  0.35538634  0.22203943  0.00049455     0.01570
C84         C  0.35573482  0.20283730  0.46788308    -0.10610
C85         C  0.35991689  0.16784865  0.46731438     0.04060
C86         C  0.36251607  0.15054391  0.99982681    -0.10030
H87         H  0.35069585  0.21253184  0.05853830     0.09650
H88         H  0.35392138  0.21479736  0.44213073     0.07180
H89         H  0.36774800  0.12465488  0.99943471     0.07030
C90         C  0.62185218  0.17697306  0.03148597     0.04060
C91         C  0.60059966  0.16537381  0.99887657    -0.12080
C92         C  0.61979040  0.18323300  0.46667028     0.01570
C93         C  0.65906587  0.21607575  0.46700593    -0.10610
C94         C  0.68105488  0.22965568  0.99946107     0.04060
C95         C  0.66263834  0.20760899  0.03124356    -0.10030
H96         H  0.56905914  0.14195787  0.99835877     0.09650
H97         H  0.67110815  0.23108062  0.44169041     0.07180
H98         H  0.67923441  0.21438723  0.05623832     0.07030
O99         O  0.99341287  0.48878411  0.31474514    -0.74360
O100        O  0.95642772  0.50321752  0.35450552    -0.53260
C101        C  0.98305916  0.49252022  0.34707262     0.79370
O102        O  0.00431527  0.63216501  0.19084482    -0.58960
O103        O  0.96612408  0.58387108  0.14923728    -0.51990
C104        C  0.99467784  0.61948430  0.15840103     0.71390
O105        O  0.00739449  0.63237445  0.30991901    -0.73520
O106        O  0.96817215  0.58506439  0.35173385    -0.54080
C107        C  0.99809209  0.61962814  0.34238813     0.77390
O108        O  0.99288143  0.48412983  0.19285021    -0.58660
O109        O  0.95757913  0.49806996  0.15029712    -0.51780
C110        C  0.98289980  0.48613503  0.16007318     0.73980
Zr111      Zr  0.97364533  0.49539253  0.25283299     2.54710
O112        O  0.04714450  0.52613341  0.25323395    -0.79230
O113        O  0.96225717  0.42597596  0.25168448    -0.92640
Zr114      Zr  0.98136199  0.60487100  0.25066770     2.64680
O115        O  0.05490239  0.63561804  0.25214477    -0.97600
O116        O  0.98201205  0.66992559  0.25015258    -0.79660
O117        O  0.97808302  0.55105097  0.28624281    -0.83020
O118        O  0.97859361  0.54993596  0.21689270    -2.17730
O119        O  0.83117615  0.41480392  0.19284466    -0.66410
O120        O  0.86863214  0.46254192  0.15061167    -0.50970
C121        C  0.84041141  0.42699380  0.16014297     0.72360
O122        O  0.83803674  0.55824701  0.31042187    -0.59310
O123        O  0.87364048  0.54441436  0.35259990    -0.51290
C124        C  0.84685026  0.55432603  0.34316537     0.74170
O125        O  0.84162983  0.56139313  0.18898654    -0.70710
O126        O  0.87486533  0.54278840  0.14846791    -0.49390
C127        C  0.84998248  0.55579633  0.15654915     0.75550
O128        O  0.83422974  0.41667363  0.31352656    -0.66040
O129        O  0.87221087  0.46594457  0.35446738    -0.53240
C130        C  0.84513054  0.42967696  0.34585813     0.73930
Zr131      Zr  0.85325472  0.44395989  0.25258196     2.77540
O132        O  0.78016766  0.41686395  0.25445709    -0.96790
O133        O  0.84800230  0.37691783  0.25367136    -0.77610
Zr134      Zr  0.86147820  0.55355691  0.25012999     2.70070
O135        O  0.78830004  0.52480976  0.24919077    -0.78860
O136        O  0.87316769  0.62314356  0.25108636    -0.97940
Zr137      Zr  0.91717748  0.52557867  0.31984521     2.21500
Zr138      Zr  0.91775608  0.52319316  0.18232802     2.11130
O139        O  0.85686870  0.49780138  0.21664661    -2.46630
O140        O  0.85616931  0.49889764  0.28602052    -0.78650
O141        O  0.91344301  0.46853716  0.21786697    -0.70840
O142        O  0.92138840  0.58094011  0.28552321    -2.31800
O143        O  0.91343250  0.46955418  0.28710162    -2.28010
O144        O  0.92159666  0.57921658  0.21527603    -0.72600
H145        H  0.00203726  0.55967808  0.20145957     0.79390
H146        H  0.92288041  0.60221808  0.30102908     0.80480
H147        H  0.83340675  0.48743938  0.20114949     0.82710
H148        H  0.91208257  0.44860513  0.30297178     0.80310
H149        H  0.96786842  0.67008972  0.27248829     0.43350
H150        H  0.89106991  0.63640555  0.23022686     0.42320
H151        H  0.77773320  0.49505105  0.25041741     0.42000
H152        H  0.77333952  0.42499281  0.23125680     0.39930
H153        H  0.87507431  0.38174734  0.24602222     0.43060
H154        H  0.94852841  0.41388391  0.27469530     0.37850
H155        H  0.05641009  0.55053397  0.26861693     0.43960
H156        H  0.06088673  0.61668973  0.23834528     0.40380
H157        H  0.76881974  0.38703662  0.25248688     0.45300
H158        H  0.98963757  0.42887743  0.25405450     0.44020
H159        H  0.06506691  0.66025771  0.23693260     0.44160
H160        H  0.84679796  0.62075533  0.24409370     0.44510
C161        C  0.05324490  0.45003166  0.03649355     0.04060
C162        C  0.03664710  0.45475938  0.00450384    -0.12080
C163        C  0.05678050  0.45984843  0.47173149     0.01570
C164        C  0.09349600  0.45899643  0.47102670    -0.10610
C165        C  0.10960675  0.45147154  0.00256816     0.04060
C166        C  0.08813300  0.44583618  0.03515854    -0.10030
H167        H  0.00916507  0.45709229  0.00541655     0.09650
H168        H  0.10996605  0.46598162  0.44595825     0.07180
H169        H  0.09888071  0.43980744  0.06012422     0.07030
C170        C  0.77124579  0.32721143  0.03436996     0.04060
C171        C  0.73592965  0.28943805  0.03329909    -0.12080
C172        C  0.72120490  0.26815211  0.50062577     0.01570
C173        C  0.74306434  0.28664017  0.46885325    -0.10610
C174        C  0.77683211  0.32565350  0.46963199     0.04060
C175        C  0.79161024  0.34521327  0.00245258    -0.10030
H176        H  0.71933731  0.27832907  0.05810986     0.09650
H177        H  0.73357750  0.27223174  0.44292842     0.07180
H178        H  0.81759762  0.37553286  0.00295280     0.07030
C179        C  0.77134965  0.58376315  0.03204854     0.04060
C180        C  0.73846315  0.59171337  0.03149134    -0.12080
C181        C  0.71653598  0.58800340  0.49936831     0.01570
C182        C  0.73201211  0.58164069  0.46689251    -0.10610
C183        C  0.76639134  0.57672996  0.46656467     0.04060
C184        C  0.78439934  0.57570024  0.99921650    -0.10030
H185        H  0.72990340  0.60027746  0.05635230     0.09650
H186        H  0.71761061  0.57985441  0.44143549     0.07180
H187        H  0.80904530  0.56872140  0.99880264     0.07030
C188        C  0.08326734  0.71069361  0.03378474     0.04060
C189        C  0.12064950  0.74691140  0.03318158    -0.12080
C190        C  0.14179355  0.76281565  0.00053813     0.01570
C191        C  0.12366895  0.74088077  0.46863196    -0.10610
C192        C  0.08538131  0.70628828  0.46896573     0.04060
C193        C  0.06546536  0.69098973  0.00153203    -0.10030
H194        H  0.13230625  0.76235823  0.05844153     0.09650
H195        H  0.13826907  0.74993900  0.44283392     0.07180
H196        H  0.03626212  0.66353566  0.00180154     0.07030
O197        O  0.52500959  0.55319252  0.18960498    -0.74360
O198        O  0.47545754  0.54126015  0.14882111    -0.53260
C199        C  0.51174005  0.54965627  0.15701594     0.79370
O200        O  0.38919968  0.41071389  0.30910933    -0.59080
O201        O  0.40062765  0.45906985  0.35156549    -0.51990
C202        C  0.39164742  0.42278930  0.34176094     0.71390
O203        O  0.39481421  0.41496692  0.18919300    -0.73520
O204        O  0.40059858  0.46325434  0.14878685    -0.54080
C205        C  0.39531785  0.42777536  0.15702686     0.77390
O206        O  0.52734385  0.55919763  0.31143650    -0.58660
O207        O  0.47769171  0.54408551  0.35324885    -0.51780
C208        C  0.51472511  0.55625237  0.34403529     0.73980
Zr209      Zr  0.49857247  0.54910828  0.25097766     2.54710
O210        O  0.54174289  0.51778212  0.25242830    -0.79230
O211        O  0.55555215  0.61795233  0.25127213    -0.92640
Zr212      Zr  0.39864016  0.44128503  0.24981884     2.64680
O213        O  0.44280847  0.41099170  0.24992190    -0.97600
O214        O  0.33701667  0.37566675  0.24756828    -0.79660
O215        O  0.44913893  0.49534284  0.21569473    -0.83020
O216        O  0.44907003  0.49415824  0.28546414    -2.17730
O217        O  0.43528038  0.63017532  0.31346249    -0.66410
O218        O  0.42589878  0.58105896  0.35423939    -0.50970
C219        C  0.43259068  0.61707656  0.34592368     0.72360
O220        O  0.30453744  0.49224038  0.18976483    -0.59310
O221        O  0.35461312  0.50712515  0.14876632    -0.51290
C222        C  0.31801127  0.49721767  0.15718180     0.74170
O223        O  0.30235236  0.48471992  0.31234715    -0.70710
O224        O  0.35259340  0.50090123  0.35357565    -0.49390
C225        C  0.31534532  0.48846267  0.34504465     0.75550
O226        O  0.43949778  0.63377860  0.19281172    -0.66040
O227        O  0.43193173  0.58626208  0.15081127    -0.53240
C228        C  0.43955826  0.62218271  0.16029498     0.73930
Zr229      Zr  0.43074348  0.60372502  0.25254086     2.77540
O230        O  0.38742178  0.63494854  0.25130522    -0.96790
O231        O  0.49316981  0.66849687  0.25293961    -0.77610
Zr232      Zr  0.33072594  0.49574275  0.25112809     2.70070
O233        O  0.28897835  0.52860128  0.25200410    -0.78860
O234        O  0.27252288  0.42767426  0.24899727    -0.97940
Zr235      Zr  0.41491912  0.52377704  0.18288998     2.21500
Zr236      Zr  0.41465592  0.52137789  0.32007381     2.11130
O237        O  0.38017999  0.54942174  0.28657534    -2.46630
O238        O  0.38038566  0.55091791  0.21702285    -0.78650
O239        O  0.46517451  0.57640281  0.28644876    -0.70840
O240        O  0.36389849  0.46828221  0.21586063    -2.31800
O241        O  0.46554088  0.57782372  0.21733432    -2.28010
O242        O  0.36424364  0.46747107  0.28518197    -0.72600
H243        H  0.46210982  0.48333954  0.30093718     0.79390
H244        H  0.34452709  0.44778502  0.19990710     0.80480
H245        H  0.36691747  0.55965798  0.30236315     0.82710
H246        H  0.48521624  0.59888523  0.20201532     0.80310
H247        H  0.31868811  0.37988267  0.23121461     0.43350
H248        H  0.27753695  0.41259479  0.26837543     0.42320
H249        H  0.30655610  0.55596983  0.24178596     0.42000
H250        H  0.36914657  0.62318248  0.27220657     0.39930
H251        H  0.51357820  0.66211704  0.26331042     0.43060
H252        H  0.55456835  0.62946947  0.22759851     0.37850
H253        H  0.52397467  0.48952638  0.24419807     0.43960
H254        H  0.45981202  0.42193778  0.27169004     0.40380
H255        H  0.40557503  0.66368514  0.25803061     0.45300
H256        H  0.57975783  0.61428318  0.25024025     0.44020
H257        H  0.42461573  0.38190436  0.25545310     0.44160
H258        H  0.24966921  0.43108390  0.25791845     0.44510
C259        C  0.36772784  0.32445382  0.46753027     0.04060
C260        C  0.35969616  0.28403928  0.46801616    -0.12080
C261        C  0.35930475  0.26419372  0.50059872     0.01570
C262        C  0.36594122  0.28674623  0.03287792    -0.10610
C263        C  0.37247166  0.32685384  0.03239776     0.04060
C264        C  0.37376141  0.34562653  0.49965847    -0.10030
H265        H  0.35465857  0.26947349  0.44222318     0.09650
H266        H  0.36663895  0.27425112  0.05877758     0.07180
H267        H  0.37973910  0.37688728  0.49918795     0.07030
C268        C  0.20844947  0.45742898  0.46870477     0.04060
C269        C  0.16763169  0.44860606  0.46997798    -0.12080
C270        C  0.15055043  0.45396379  0.50213652     0.01570
C271        C  0.17426045  0.46468825  0.03370715    -0.10610
C272        C  0.21331239  0.46960904  0.03354513     0.04060
C273        C  0.23055000  0.46745529  0.50094844    -0.10030
H274        H  0.14975498  0.43846614  0.44566523     0.09650
H275        H  0.16350964  0.47068668  0.05863205     0.07180
H276        H  0.26197473  0.47453955  0.50078161     0.07030
C277        C  0.61963772  0.58816976  0.46779418     0.04060
C278        C  0.65905746  0.59337928  0.46794356    -0.12080
C279        C  0.67667609  0.58828614  0.49989858     0.01570
C280        C  0.65374193  0.57939592  0.03193891    -0.10610
C281        C  0.61564418  0.57739377  0.03245143     0.04060
C282        C  0.59918036  0.58232355  0.50030565    -0.10030
H283        H  0.67474915  0.60017465  0.44254073     0.09650
H284        H  0.66434899  0.57254327  0.05656932     0.07180
H285        H  0.56914672  0.57931830  0.50030458     0.07030
C286        C  0.46513818  0.72114184  0.47128146     0.04060
C287        C  0.46760802  0.75964101  0.47168046    -0.12080
C288        C  0.47711872  0.78296558  0.50355783     0.01570
C289        C  0.48159450  0.76529510  0.03561367    -0.10610
C290        C  0.47577439  0.72565913  0.03589966     0.04060
C291        C  0.47001127  0.70474036  0.50358637    -0.10030
H292        H  0.46065402  0.77034522  0.44712462     0.09650
H293        H  0.48817738  0.78108255  0.06101552     0.07180
H294        H  0.46667559  0.67444777  0.50400312     0.07030
C295        C  0.28526784  0.47766253  0.37521292    -0.04400
C296        C  0.28754934  0.45668439  0.40606854    -0.01520
C297        C  0.25761741  0.44390310  0.43300270     0.03470
C298        C  0.23007897  0.45929612  0.43403523    -0.04400
C299        C  0.22886222  0.48213449  0.40409834    -0.01510
C300        C  0.25489194  0.48950042  0.37422747     0.03470
C301        C  0.32278104  0.45187543  0.41277042     0.38120
C302        C  0.20282247  0.50049262  0.40458456     0.38110
C303        C  0.25286013  0.51305898  0.34418231     0.36530
C304        C  0.25567999  0.41504997  0.45999525     0.36530
N305        N  0.25088378  0.53205767  0.32055964    -0.38290
N306        N  0.25418826  0.39205457  0.48145065    -0.38290
N307        N  0.18223859  0.51534905  0.40473362    -0.37730
N308        N  0.35148473  0.44958487  0.41963718    -0.37740
C309        C  0.28963047  0.49143440  0.12685025    -0.04400
C310        C  0.24938476  0.45852808  0.12682952    -0.01520
C311        C  0.22400849  0.45153453  0.09664561     0.03470
C312        C  0.23755361  0.47887854  0.06731332    -0.04400
C313        C  0.27614661  0.51351209  0.06879056    -0.01510
C314        C  0.30301758  0.51825415  0.09688960     0.03470
C315        C  0.23475163  0.42987287  0.15648356     0.38120
C316        C  0.28781418  0.54469226  0.04137536     0.38110
C317        C  0.34497300  0.54934814  0.09307164     0.36530
C318        C  0.18461595  0.41521704  0.09517271     0.36530
N319        N  0.37850933  0.57318934  0.08822996    -0.38290
N320        N  0.15321620  0.38624263  0.09393707    -0.38290
N321        N  0.29592408  0.56917120  0.01936205    -0.37730
N322        N  0.22269958  0.40664867  0.17985933    -0.37740
C323        C  0.45429158  0.69629503  0.43760002    -0.04400
C324        C  0.47745795  0.71176415  0.40594192    -0.01520
C325        C  0.46874230  0.68688876  0.37512768     0.03470
C326        C  0.43790813  0.64552747  0.37616385    -0.04400
C327        C  0.41330171  0.63100519  0.40724353    -0.01510
C328        C  0.42106036  0.65639960  0.43740264     0.03470
C329        C  0.51157551  0.75277882  0.40544363     0.38120
C330        C  0.37914382  0.59014513  0.40837903     0.38110
C331        C  0.39441080  0.64151201  0.46833425     0.36530
C332        C  0.49335246  0.70379111  0.34322329     0.36530
N333        N  0.37386075  0.63010595  0.99344332    -0.38290
N334        N  0.51343355  0.71813904  0.31815852    -0.38290
N335        N  0.35167463  0.55776141  0.41029115    -0.37730
N336        N  0.53870419  0.78551513  0.40500087    -0.37740
C337        C  0.45034336  0.65271854  0.13140798    -0.04400
C338        C  0.42097402  0.66181159  0.11743181    -0.01520
C339        C  0.42973973  0.68641473  0.08654567     0.03470
C340        C  0.46842538  0.70320474  0.07033223    -0.04400
C341        C  0.49864571  0.69639359  0.08583646    -0.01510
C342        C  0.48955592  0.67101285  0.11626606     0.03470
C343        C  0.38121148  0.64442129  0.13393449     0.38120
C344        C  0.53891056  0.71533953  0.07032600     0.38110
C345        C  0.52057006  0.66385866  0.13222622     0.36530
C346        C  0.39839833  0.69306688  0.07049730     0.36530
N347        N  0.54534708  0.65836302  0.14519280    -0.38290
N348        N  0.37343744  0.69827805  0.05750935    -0.38290
N349        N  0.57109482  0.73064215  0.05801914    -0.37730
N350        N  0.34944070  0.63034117  0.14699375    -0.37740
C351        C  0.54514839  0.56735070  0.37332207    -0.04400
C352        C  0.56472322  0.54408551  0.37912996    -0.01520
C353        C  0.58911856  0.55094372  0.40989516     0.03470
C354        C  0.59720880  0.58358363  0.43345194    -0.04400
C355        C  0.58034798  0.60904315  0.42583704    -0.01510
C356        C  0.55394862  0.60053233  0.39624984     0.03470
C357        C  0.55984167  0.51305163  0.35345569     0.38120
C358        C  0.58995998  0.64388961  0.44860271     0.38110
C359        C  0.53711927  0.62698894  0.38861767     0.36530
C360        C  0.60298754  0.52223003  0.41879394     0.36530
N361        N  0.52435503  0.64872095  0.38257854    -0.38290
N362        N  0.61332060  0.49883749  0.42626492    -0.38290
N363        N  0.59758958  0.67166283  0.46677452    -0.37730
N364        N  0.55697418  0.48906289  0.33252377    -0.37740
C365        C  0.53975871  0.55509274  0.12635819    -0.04400
C366        C  0.58123101  0.58534444  0.12736914    -0.01520
C367        C  0.60635297  0.59231370  0.09702858     0.03470
C368        C  0.59114095  0.56761112  0.06612864    -0.04400
C369        C  0.55094783  0.53524709  0.06625317    -0.01510
C370        C  0.52485049  0.53052227  0.09502736     0.03470
C371        C  0.59805447  0.61137250  0.15851696     0.38120
C372        C  0.53622793  0.50639962  0.03659603     0.38110
C373        C  0.48226559  0.50137001  0.09069246     0.36530
C374        C  0.64743660  0.62615365  0.09713515     0.36530
N375        N  0.44846441  0.47891077  0.08516532    -0.38290
N376        N  0.68019602  0.65312112  0.09721628    -0.38290
N377        N  0.52451292  0.48347010  0.51302620    -0.37730
N378        N  0.61256070  0.63273032  0.18286937    -0.37740
C379        C  0.37223108  0.34567604  0.43284187    -0.04400
C380        C  0.40952183  0.36264106  0.41433429    -0.01520
C381        C  0.41513499  0.38599483  0.38308727     0.03470
C382        C  0.38366412  0.39265280  0.37047393    -0.04400
C383        C  0.34503912  0.37179858  0.38650957    -0.01510
C384        C  0.33960443  0.34929476  0.41833248     0.03470
C385        C  0.44230691  0.35666739  0.42784023     0.38120
C386        C  0.31091880  0.37308990  0.36989599     0.38110
C387        C  0.30073248  0.33034231  0.43642876     0.36530
C388        C  0.45273945  0.40203231  0.36322976     0.36530
N389        N  0.26975993  0.31526209  0.45097674    -0.38290
N390        N  0.48241828  0.41384687  0.34697554    -0.38290
N391        N  0.28371583  0.37401062  0.35647871    -0.37730
N392        N  0.46840753  0.35181208  0.43858618    -0.37740
C393        C  0.38857692  0.39928555  0.12705016    -0.04400
C394        C  0.35178294  0.38230869  0.10777355    -0.01520
C395        C  0.34610613  0.35743770  0.07762923     0.03470
C396        C  0.37737461  0.34969953  0.06630569    -0.04400
C397        C  0.41397043  0.36603872  0.08598161    -0.01510
C398        C  0.41941619  0.39050160  0.11652564     0.03470
C399        C  0.31964061  0.39035758  0.11907265     0.38120
C400        C  0.44663957  0.35921413  0.07382575     0.38110
C401        C  0.45751553  0.40845302  0.13600064     0.36530
C402        C  0.30807155  0.33989012  0.05805009     0.36530
N403        N  0.48795629  0.42304008  0.15146647    -0.38290
N404        N  0.27778012  0.32583789  0.04237908    -0.38290
N405        N  0.47276365  0.35391410  0.06401117    -0.37730
N406        N  0.29391769  0.39664630  0.12810340    -0.37740
C407        C  0.82962068  0.56518540  0.12612632    -0.04400
C408        C  0.85162537  0.58482736  0.09482414    -0.01520
C409        C  0.83386377  0.59724489  0.06786681     0.03470
C410        C  0.79134825  0.58144397  0.06657840    -0.04400
C411        C  0.76829021  0.55885471  0.09674045    -0.01510
C412        C  0.78772758  0.55321387  0.12721470     0.03470
C413        C  0.89134255  0.58919284  0.08802768     0.38120
C414        C  0.72437492  0.53896456  0.09596292     0.38110
C415        C  0.76334118  0.53070595  0.15782219     0.36530
C416        C  0.86054317  0.62802245  0.04275631     0.36530
N417        N  0.74320370  0.51239530  0.18179040    -0.38290
N418        N  0.88385313  0.65348084  0.02446216    -0.38290
N419        N  0.68932707  0.52280038  0.09555929    -0.37730
N420        N  0.92207301  0.59103465  0.08122779    -0.37740
C421        C  0.82496675  0.56222190  0.37248208    -0.04400
C422        C  0.78221583  0.54043237  0.37468748    -0.01520
C423        C  0.76262304  0.54347089  0.40599182     0.03470
C424        C  0.78487007  0.57353299  0.43208846    -0.04400
C425        C  0.82638386  0.60004142  0.42604638    -0.01510
C426        C  0.84695450  0.59114919  0.39927077     0.03470
C427        C  0.75845095  0.51412031  0.34549665     0.38120
C428        C  0.84697999  0.63878289  0.44447418     0.38110
C429        C  0.89062081  0.61025528  0.40100259     0.36530
C430        C  0.72034462  0.51444874  0.41185451     0.36530
N431        N  0.92526767  0.62407968  0.40404811    -0.38290
N432        N  0.68672400  0.49071086  0.41650233    -0.38290
N433        N  0.86310499  0.67083813  0.45728201    -0.37730
N434        N  0.73920229  0.49358342  0.32204960    -0.37740
C435        C  0.81675962  0.39824360  0.13091809    -0.04400
C436        C  0.81184012  0.35849795  0.12955618    -0.01520
C437        C  0.79707751  0.33511437  0.09791177     0.03470
C438        C  0.78451336  0.35019606  0.06860606    -0.04400
C439        C  0.78422206  0.38735042  0.07204764    -0.01510
C440        C  0.80054324  0.41133127  0.10293965     0.03470
C441        C  0.82284217  0.34185367  0.16007146     0.38120
C442        C  0.76639726  0.40064583  0.04407097     0.38110
C443        C  0.79808746  0.44826719  0.10672132     0.36530
C444        C  0.79647626  0.29637491  0.09492842     0.36530
N445        N  0.79469356  0.47704565  0.10907706    -0.38290
N446        N  0.79609060  0.26552617  0.09243994    -0.38290
N447        N  0.75213092  0.41137020  0.02196222    -0.37730
N448        N  0.83148582  0.32811758  0.18416341    -0.37740
C449        C  0.79260906  0.34915524  0.43591442    -0.04400
C450        C  0.82825166  0.35345211  0.41987682    -0.01520
C451        C  0.84478566  0.37893091  0.38962588     0.03470
C452        C  0.82588029  0.40040064  0.37558025    -0.04400
C453        C  0.78946502  0.39489968  0.39085683    -0.01510
C454        C  0.77285395  0.36939167  0.42097743     0.03470
C455        C  0.84786936  0.33178086  0.43464412     0.38120
C456        C  0.76910263  0.41556751  0.37569454     0.38110
C457        C  0.73579364  0.36458542  0.43709935     0.36530
C458        C  0.88111644  0.38293020  0.37277328     0.36530
N459        N  0.70621606  0.36069326  0.44992144    -0.38290
N460        N  0.90989995  0.38585554  0.35910257    -0.38290
N461        N  0.75231651  0.43158106  0.36366752    -0.37730
N462        N  0.86342037  0.31438285  0.44645182    -0.37740
C463        C  0.00217523  0.47390457  0.13125048    -0.04400
C464        C  0.97867393  0.43906279  0.11014057    -0.01520
C465        C  0.99600001  0.42948081  0.08065457     0.03470
C466        C  0.03687673  0.45540576  0.07135791    -0.04400
C467        C  0.06101469  0.48920606  0.09362263    -0.01510
C468        C  0.04401299  0.49737199  0.12420204     0.03470
C469        C  0.93702724  0.41196842  0.11969985     0.38120
C470        C  0.10275894  0.51708932  0.08400810     0.38110
C471        C  0.06980584  0.52949926  0.14870236     0.36530
C472        C  0.97180006  0.39284585  0.05989558     0.36530
N473        N  0.09089865  0.55425921  0.16875579    -0.38290
N474        N  0.95255254  0.36355719  0.04341237    -0.38290
N475        N  0.13595402  0.53943984  0.07615733    -0.37730
N476        N  0.90387886  0.38966882  0.12735612    -0.37740
C477        C  0.04069715  0.46960375  0.43874614    -0.04400
C478        C  0.03205406  0.50209091  0.43928865    -0.01520
C479        C  0.01106328  0.50775889  0.41057221     0.03470
C480        C  0.00333490  0.48461389  0.37840782    -0.04400
C481        C  0.01445620  0.45359300  0.37714859    -0.01510
C482        C  0.03170617  0.44529345  0.40759400     0.03470
C483        C  0.04527328  0.53033671  0.46939165     0.38120
C484        C  0.00602581  0.42806435  0.34564934     0.38110
C485        C  0.03867016  0.41058104  0.40731392     0.36530
C486        C  0.99622661  0.53647665  0.41568454     0.36530
N487        N  0.04410723  0.38284371  0.40712573    -0.38290
N488        N  0.98379154  0.55864143  0.42116854    -0.38290
N489        N  0.99968862  0.40692225  0.32111698    -0.37730
N490        N  0.05585408  0.55286131  0.49330262    -0.37740
C491        C  0.01954230  0.64771293  0.12948058    -0.04400
C492        C  0.05895706  0.65409052  0.12286207    -0.01520
C493        C  0.08027225  0.67548906  0.09198213     0.03470
C494        C  0.06290067  0.69218944  0.06838003    -0.04400
C495        C  0.02547539  0.68985647  0.07738403    -0.01510
C496        C  0.00440904  0.66856818  0.10849348     0.03470
C497        C  0.07855658  0.64078678  0.14890986     0.38120
C498        C  0.00878096  0.70946725  0.05472904     0.38110
C499        C  0.96890975  0.67057431  0.12044727     0.36530
C500        C  0.11943619  0.67903305  0.08389524     0.36530
N501        N  0.94094867  0.67269873  0.13030514    -0.38290
N502        N  0.15064939  0.68182127  0.07743702    -0.38290
N503        N  0.99544777  0.72504778  0.03656512    -0.37730
N504        N  0.09508316  0.63182244  0.17024740    -0.37740
C505        C  0.02457485  0.64606974  0.37139163    -0.04400
C506        C  0.01896740  0.67775243  0.38543823    -0.01520
C507        C  0.03859464  0.69722166  0.41762210     0.03470
C508        C  0.06559782  0.68656048  0.43461578    -0.04400
C509        C  0.07452541  0.65803101  0.41826667    -0.01510
C510        C  0.05430464  0.63810444  0.38645989     0.03470
C511        C  0.99351133  0.69060493  0.36650718     0.38120
C512        C  0.10400364  0.64876275  0.43451182     0.38110
C513        C  0.06457532  0.60999037  0.36872742     0.36530
C514        C  0.03064774  0.72781861  0.43354834     0.36530
N515        N  0.07292530  0.58778915  0.35437935    -0.38290
N516        N  0.02422813  0.75212442  0.44637534    -0.38290
N517        N  0.12758111  0.64145355  0.44749839    -0.37730
N518        N  0.97320256  0.70085302  0.35138670    -0.37740
C519        C  0.60026746  0.15732619  0.06568141    -0.04400
C520        C  0.59929498  0.18093275  0.09495436    -0.01520
C521        C  0.57445607  0.16185940  0.12516277     0.03470
C522        C  0.54825783  0.11922115  0.12545438    -0.04400
C523        C  0.54889028  0.09599376  0.09569743    -0.01510
C524        C  0.57663516  0.11456316  0.06744985     0.03470
C525        C  0.62211075  0.22502978  0.09342844     0.38120
C526        C  0.51941540  0.05332280  0.09223999     0.38110
C527        C  0.58076373  0.08935933  0.03999246     0.36530
C528        C  0.57375342  0.18680372  0.15458558     0.36530
N529        N  0.58415177  0.06940605  0.01808452    -0.38290
N530        N  0.57345883  0.20706364  0.17784711    -0.38290
N531        N  0.49532175  0.01974400  0.08761354    -0.37730
N532        N  0.64026762  0.26019858  0.09232555    -0.37740
C533        C  0.55003656  0.13126742  0.37103510    -0.04400
C534        C  0.58069066  0.12192428  0.38077435    -0.01520
C535        C  0.60401699  0.13936971  0.41195115     0.03470
C536        C  0.59797582  0.16761251  0.43233269    -0.04400
C537        C  0.57009794  0.17981192  0.42059864    -0.01510
C538        C  0.54628906  0.16171401  0.38990862     0.03470
C539        C  0.58703489  0.09314799  0.35954930     0.38120
C540        C  0.56583316  0.21081311  0.44028116     0.38110
C541        C  0.51944557  0.17592606  0.37676354     0.36530
C542        C  0.63298289  0.12704107  0.42394726     0.36530
N543        N  0.49904283  0.18856429  0.36615841    -0.38290
N544        N  0.65595019  0.11709597  0.43370643    -0.38290
N545        N  0.56256093  0.23560463  0.45597810    -0.37730
N546        N  0.59189312  0.07006128  0.34264938    -0.37740
C547        C  0.38096167  0.11196183  0.12680011    -0.04400
C548        C  0.35006638  0.08786758  0.10228871    -0.01520
C549        C  0.34085813  0.10615532  0.07330381     0.03470
C550        C  0.36413082  0.14856769  0.06709544    -0.04400
C551        C  0.39434092  0.17285501  0.09248064    -0.01510
C552        C  0.40204637  0.15465164  0.12256096     0.03470
C553        C  0.32698664  0.04411071  0.10723371     0.38120
C554        C  0.41871886  0.21645619  0.08725756     0.38110
C555        C  0.43291644  0.17989310  0.14837611     0.36530
C556        C  0.30610666  0.08109773  0.05098062     0.36530
N557        N  0.45752678  0.20036502  0.16882726    -0.38290
N558        N  0.27766415  0.06002331  0.03435099    -0.38290
N559        N  0.43800311  0.25127719  0.08331886    -0.37730
N560        N  0.30833616  0.00921018  0.11082795    -0.37740
C561        C  0.37736094  0.11436763  0.37097503    -0.04400
C562        C  0.34642996  0.09034095  0.39545210    -0.01520
C563        C  0.33803931  0.10874562  0.42474773     0.03470
C564        C  0.36388075  0.15031948  0.43248538    -0.04400
C565        C  0.39365452  0.17466651  0.40688601    -0.01510
C566        C  0.39781223  0.15704457  0.37484059     0.03470
C567        C  0.32179516  0.04697111  0.38948161     0.38120
C568        C  0.42115022  0.21739412  0.41381710     0.38110
C569        C  0.42225344  0.18289898  0.34569096     0.36530
C570        C  0.30090621  0.08567825  0.44482635     0.36530
N571        N  0.44124998  0.20380674  0.32233014    -0.38290
N572        N  0.27019328  0.06705052  0.45930333    -0.38290
N573        N  0.44321303  0.25144628  0.41935346    -0.37730
N574        N  0.30187910  0.01237423  0.38487761    -0.37740
C575        C  0.25993186  0.88322409  0.06384974    -0.04400
C576        C  0.24060967  0.88228732  0.09688011    -0.01520
C577        C  0.26369850  0.90176628  0.12807391     0.03470
C578        C  0.30663988  0.92376638  0.12667135    -0.04400
C579        C  0.32580601  0.92459350  0.09364370    -0.01510
C580        C  0.30298512  0.90487326  0.06284418     0.03470
C581        C  0.19678439  0.86355123  0.09851995     0.38120
C582        C  0.36970362  0.94620127  0.09016653     0.38110
C583        C  0.32558603  0.90925651  0.03007716     0.36530
C584        C  0.24270702  0.90025904  0.16114063     0.36530
N585        N  0.34654928  0.91617794  0.50541099    -0.38290
N586        N  0.22558459  0.89865225  0.18739947    -0.38290
N587        N  0.40434084  0.96351208  0.08556718    -0.37730
N588        N  0.16184291  0.84865984  0.09994297    -0.37740
C589        C  0.30385043  0.92467285  0.37398212    -0.04400
C590        C  0.31818790  0.90943582  0.40192334    -0.01520
C591        C  0.29130133  0.88308221  0.42785557     0.03470
C592        C  0.25234217  0.87870177  0.43110998    -0.04400
C593        C  0.23696931  0.89242826  0.40309156    -0.01510
C594        C  0.26218111  0.91391356  0.37373285     0.03470
C595        C  0.36070442  0.92216283  0.40602035     0.38120
C596        C  0.19520788  0.88384642  0.40425378     0.38110
C597        C  0.24541006  0.92657744  0.34454880     0.36530
C598        C  0.30262065  0.85811398  0.44963142     0.36530
N599        N  0.23119530  0.93622391  0.32157453    -0.38290
N600        N  0.31150040  0.83779285  0.96659462    -0.38290
N601        N  0.16170480  0.87650104  0.40508099    -0.37730
N602        N  0.39442781  0.93281492  0.41180934    -0.37740
C603        C  0.46919485  0.89477796  0.07066174    -0.04400
C604        C  0.43150942  0.87926193  0.08823780    -0.01520
C605        C  0.42814449  0.89822514  0.11967053     0.03470
C606        C  0.46232747  0.93298386  0.13327449    -0.04400
C607        C  0.50062121  0.94648829  0.11744577    -0.01510
C608        C  0.50399064  0.92772968  0.08583335     0.03470
C609        C  0.39604958  0.84452037  0.07339924     0.38120
C610        C  0.53622437  0.98039564  0.13311831     0.38110
C611        C  0.54315029  0.94252487  0.06872749     0.36530
C612        C  0.38947979  0.88217336  0.13799199     0.36530
N613        N  0.57443537  0.95434147  0.05515559    -0.38290
N614        N  0.35870309  0.86929500  0.15271021    -0.38290
N615        N  0.56454457  0.00755580  0.14557611    -0.37730
N616        N  0.36782137  0.81676662  0.06151970    -0.37740
C617        C  0.46841871  0.94236042  0.37685339    -0.04400
C618        C  0.49393547  0.96469495  0.40568477    -0.01520
C619        C  0.50204928  0.94457158  0.43380110     0.03470
C620        C  0.47981199  0.90171114  0.43672636    -0.04400
C621        C  0.45320230  0.87913840  0.40838970    -0.01510
C622        C  0.44887650  0.89931775  0.37798442     0.03470
C623        C  0.50897542  0.00802224  0.40865162     0.38120
C624        C  0.42800059  0.83533813  0.41132721     0.38110
C625        C  0.42067562  0.87558852  0.34977129     0.36530
C626        C  0.53353931  0.96824431  0.45973287     0.36530
N627        N  0.39787420  0.85636429  0.32758966    -0.38290
N628        N  0.55887544  0.98711871  0.98020225    -0.38290
N629        N  0.40777034  0.80042527  0.41359113    -0.37730
N630        N  0.51954057  0.04216719  0.41283120    -0.37740
C631        C  0.47237057  0.87676642  0.53625113     0.04060
C632        C  0.47426085  0.89635125  0.50389453    -0.12080
C633        C  0.48041104  0.88140249  0.97128782     0.01570
C634        C  0.48480175  0.84631637  0.97182630    -0.10610
C635        C  0.47889458  0.82376996  0.00387484     0.04060
C636        C  0.47291393  0.83995322  0.53608315    -0.10030
H637        H  0.47060806  0.92319543  0.50424606     0.09650
H638        H  0.49197527  0.83649419  0.94690618     0.07180
H639        H  0.46778855  0.82421796  0.56141901     0.07030
C640        C  0.23564919  0.86256072  0.53044017     0.04060
C641        C  0.24658282  0.88276357  0.49722668    -0.12080
C642        C  0.22989402  0.86192964  0.96519344     0.01570
C643        C  0.19621194  0.82325378  0.96629741    -0.10610
C644        C  0.18072486  0.80306468  0.49937283     0.04060
C645        C  0.20302103  0.82220219  0.53103599    -0.10030
H646        H  0.27034048  0.91413535  0.49568884     0.09650
H647        H  0.18323924  0.80977117  0.94076901     0.07180
H648        H  0.19575391  0.80587458  0.55619529     0.07030
O649        O  0.31951817  0.93984357  0.81203798    -0.74360
O650        O  0.36660964  0.97974784  0.85367462    -0.53260
C651        C  0.33180915  0.94991629  0.84466869     0.79370
O652        O  0.46363241  0.95003380  0.69451311    -0.58960
O653        O  0.44445586  0.98168930  0.65249599    -0.51990
C654        C  0.45697623  0.95682587  0.66204863     0.71390
O655        O  0.46365041  0.95368784  0.81457956    -0.73520
O656        O  0.44798310  0.98935488  0.85514542    -0.54080
C657        C  0.45969624  0.96343481  0.84691683     0.77390
O658        O  0.32001748  0.93587505  0.69064222    -0.58660
O659        O  0.36545474  0.98004078  0.65062474    -0.51780
C660        C  0.33201833  0.94801141  0.65820695     0.73980
Zr661      Zr  0.34517973  0.96280829  0.75133055     2.54710
O662        O  0.31009672  0.88881928  0.75351264    -0.79230
O663        O  0.28248269  0.96593506  0.74745564    -0.92640
Zr664      Zr  0.45521680  0.97244911  0.75358317     2.64680
O665        O  0.42363805  0.89856623  0.75551010    -0.97600
O666        O  0.52373960  0.98191670  0.75392393    -0.79660
O667        O  0.39971997  0.96766775  0.78708549    -0.83020
O668        O  0.40005849  0.96605904  0.71819400    -2.17730
O669        O  0.38691340  0.10203125  0.68896863    -0.66410
O670        O  0.40353328  0.06706671  0.64832215    -0.50970
C671        C  0.39117234  0.09240619  0.65668354     0.72360
O672        O  0.53357465  0.11642672  0.80967045    -0.59310
O673        O  0.48525492  0.08035404  0.85195129    -0.51290
C674        C  0.52092518  0.10796644  0.84226632     0.74170
O675        O  0.53261599  0.10987592  0.68842815    -0.70710
O676        O  0.48333602  0.07179195  0.64794738    -0.49390
C677        C  0.51957285  0.09907285  0.65598207     0.75550
O678        O  0.38533412  0.10356451  0.80944992    -0.66040
O679        O  0.40159621  0.07009953  0.85208145    -0.53240
C680        C  0.38889348  0.09477959  0.84220856     0.73930
Zr681      Zr  0.39593521  0.08356432  0.74990200     2.77540
O682        O  0.42863577  0.15748801  0.75111575    -0.96790
O683        O  0.32810191  0.07579379  0.74864648    -0.77610
Zr684      Zr  0.50555579  0.09289319  0.74998657     2.70070
O685        O  0.53165121  0.16609466  0.74766334    -0.78860
O686        O  0.57289477  0.09944681  0.75214783    -0.97940
Zr687      Zr  0.42547730  0.02943641  0.82027582     2.21500
Zr688      Zr  0.42521062  0.02653928  0.68326280     2.11130
O689        O  0.45109117  0.08876534  0.71543077    -2.46630
O690        O  0.45122078  0.08964334  0.78482536    -0.78650
O691        O  0.36950853  0.02255246  0.71594148    -0.70840
O692        O  0.48115913  0.03377748  0.78667100    -2.31800
O693        O  0.36981168  0.02366510  0.78552350    -2.28010
O694        O  0.48103665  0.03161915  0.71694654    -0.72600
H695        H  0.39029652  0.94220078  0.70318076     0.79390
H696        H  0.50245506  0.03602401  0.80248224     0.80480
H697        H  0.46094527  0.11175667  0.69929437     0.82710
H698        H  0.34850147  0.02201447  0.80093388     0.80310
H699        H  0.53993961  0.00733572  0.76763649     0.43350
H700        H  0.57256845  0.08073472  0.73328323     0.42320
H701        H  0.51847714  0.17191422  0.76809880     0.42000
H702        H  0.45316579  0.16658665  0.73612840     0.39930
H703        H  0.31348657  0.05465999  0.73020680     0.43060
H704        H  0.28355299  0.98323996  0.76790546     0.37850
H705        H  0.33194615  0.88158205  0.75141721     0.43960
H706        H  0.40502379  0.88894628  0.73462828     0.40380
H707        H  0.41064214  0.16441455  0.73691357     0.45300
H708        H  0.26116375  0.93820383  0.75402031     0.44020
H709        H  0.44560890  0.89252747  0.74915039     0.44160
H710        H  0.59108952  0.12701834  0.74260896     0.44510
C711        C  0.35918947  0.16671938  0.53278696     0.04060
C712        C  0.35432671  0.20155072  0.53282869    -0.12080
C713        C  0.35538335  0.22203889  0.50049565     0.01570
C714        C  0.35573716  0.20283696  0.96788199    -0.10610
C715        C  0.35991734  0.16784686  0.96731364     0.04060
C716        C  0.36251590  0.15054518  0.49982720    -0.10030
H717        H  0.35069376  0.21253127  0.55853952     0.09650
H718        H  0.35392445  0.21479734  0.94212954     0.07180
H719        H  0.36774859  0.12465664  0.49943457     0.07030
C720        C  0.62185542  0.17696833  0.53148310     0.04060
C721        C  0.60060279  0.16536732  0.49887388    -0.12080
C722        C  0.61978808  0.18323892  0.96667319     0.01570
C723        C  0.65906447  0.21607977  0.96700884    -0.10610
C724        C  0.68105567  0.22965262  0.49945842     0.04060
C725        C  0.66264070  0.20760506  0.53124053    -0.10030
H726        H  0.56906263  0.14195043  0.49835656     0.09650
H727        H  0.67110734  0.23108310  0.94169296     0.07180
H728        H  0.67923696  0.21438432  0.55623530     0.07030
O729        O  0.99341019  0.48878336  0.81474229    -0.74360
O730        O  0.95642761  0.50321985  0.85450275    -0.53260
C731        C  0.98305716  0.49251991  0.84706996     0.79370
O732        O  0.00430046  0.63216834  0.69083653    -0.58960
O733        O  0.96611311  0.58386981  0.64923086    -0.51990
C734        C  0.99466224  0.61948585  0.65839314     0.71390
O735        O  0.00739601  0.63237771  0.80991369    -0.73520
O736        O  0.96817376  0.58506880  0.85172957    -0.54080
C737        C  0.99809396  0.61963209  0.84238322     0.77390
O738        O  0.99288043  0.48413430  0.69284811    -0.58660
O739        O  0.95757540  0.49807076  0.65029518    -0.51780
C740        C  0.98289791  0.48613803  0.66007116     0.73980
Zr741      Zr  0.97364329  0.49539514  0.75283035     2.54710
O742        O  0.04714239  0.52613588  0.75323386    -0.79230
O743        O  0.96225502  0.42597857  0.75167951    -0.92640
Zr744      Zr  0.98136089  0.60487370  0.75066223     2.64680
O745        O  0.05490145  0.63561530  0.75212244    -0.97600
O746        O  0.98201796  0.66993171  0.75015376    -0.79660
O747        O  0.97808327  0.55105504  0.78623908    -0.83020
O748        O  0.97858970  0.54993691  0.71688817    -2.17730
O749        O  0.83116728  0.41480559  0.69284597    -0.66410
O750        O  0.86862255  0.46254157  0.65061128    -0.50970
C751        C  0.84040071  0.42699454  0.66014392     0.72360
O752        O  0.83803526  0.55824760  0.81041870    -0.59310
O753        O  0.87364205  0.54441872  0.85259666    -0.51290
C754        C  0.84684998  0.55432759  0.84316189     0.74170
O755        O  0.84162932  0.56139874  0.68898397    -0.70710
O756        O  0.87486136  0.54279056  0.64846469    -0.49390
C757        C  0.84998081  0.55580138  0.65654630     0.75550
O758        O  0.83422965  0.41667680  0.81352696    -0.66040
O759        O  0.87221280  0.46594833  0.85446656    -0.53240
C760        C  0.84513197  0.42968037  0.84585827     0.73930
Zr761      Zr  0.85325225  0.44396245  0.75258185     2.77540
O762        O  0.78016543  0.41686674  0.75446265    -0.96790
O763        O  0.84800089  0.37692081  0.75366943    -0.77610
Zr764      Zr  0.86147716  0.55356001  0.75012717     2.70070
O765        O  0.78829927  0.52481510  0.74918684    -0.78860
O766        O  0.87316894  0.62314742  0.75108609    -0.97940
Zr767      Zr  0.91717825  0.52558251  0.81984249     2.21500
Zr768      Zr  0.91775072  0.52319292  0.68232504     2.11130
O769        O  0.85686487  0.49780272  0.71664525    -2.46630
O770        O  0.85616914  0.49890183  0.78601910    -0.78650
O771        O  0.91343956  0.46853847  0.71786543    -0.70840
O772        O  0.92138829  0.58094316  0.78551927    -2.31800
O773        O  0.91343131  0.46955705  0.78709974    -2.28010
O774        O  0.92159422  0.57921791  0.71527226    -0.72600
H775        H  0.00203240  0.55967874  0.70145389     0.79390
H776        H  0.92288077  0.60222145  0.80102499     0.80480
H777        H  0.83340228  0.48744092  0.70114893     0.82710
H778        H  0.91208176  0.44860820  0.80296993     0.80310
H779        H  0.96786434  0.67009007  0.77248476     0.43350
H780        H  0.89107261  0.63641021  0.73022760     0.42320
H781        H  0.77773154  0.49505599  0.75040797     0.42000
H782        H  0.77333514  0.42499502  0.73126309     0.39930
H783        H  0.87507328  0.38175105  0.74602078     0.43060
H784        H  0.94852788  0.41388630  0.77469085     0.37850
H785        H  0.05640798  0.55054334  0.76860771     0.43960
H786        H  0.06088138  0.61669239  0.73830921     0.40380
H787        H  0.76881725  0.38703934  0.75249280     0.45300
H788        H  0.98963557  0.42887999  0.75404754     0.44020
H789        H  0.06506337  0.66026150  0.73691919     0.44160
H790        H  0.84680003  0.62076055  0.74409247     0.44510
C791        C  0.05325208  0.45004019  0.53649460     0.04060
C792        C  0.03666091  0.45477853  0.50450501    -0.12080
C793        C  0.05676829  0.45983429  0.97173020     0.01570
C794        C  0.09348902  0.45899224  0.97102535    -0.10610
C795        C  0.10960759  0.45146683  0.50256893     0.04060
C796        C  0.08813282  0.44583181  0.53515868    -0.10030
H797        H  0.00918316  0.45711923  0.50541725     0.09650
H798        H  0.10995894  0.46597980  0.94595665     0.07180
H799        H  0.09887415  0.43979245  0.56012307     0.07030
C800        C  0.77123509  0.32721440  0.53437070     0.04060
C801        C  0.73592170  0.28943904  0.53329821    -0.12080
C802        C  0.72120745  0.26815231  0.00062685     0.01570
C803        C  0.74306535  0.28663950  0.96885310    -0.10610
C804        C  0.77683641  0.32565089  0.96963063     0.04060
C805        C  0.79160134  0.34521737  0.50245424    -0.10030
H806        H  0.71932735  0.27832882  0.55810789     0.09650
H807        H  0.73357523  0.27223233  0.94292819     0.07180
H808        H  0.81758689  0.37553810  0.50295523     0.07030
C809        C  0.77135752  0.58378800  0.53204755     0.04060
C810        C  0.73847584  0.59174597  0.53149060    -0.12080
C811        C  0.71652119  0.58796428  0.99936932     0.01570
C812        C  0.73199865  0.58160403  0.96689394    -0.10610
C813        C  0.76638284  0.57670244  0.96656619     0.04060
C814        C  0.78440465  0.57572254  0.49921533    -0.10030
H815        H  0.72991891  0.60031173  0.55635206     0.09650
H816        H  0.71759398  0.57981251  0.94143740     0.07180
H817        H  0.80904641  0.56873742  0.49880176     0.07030
C818        C  0.08324008  0.71072218  0.53378259     0.04060
C819        C  0.12061712  0.74694476  0.53318003    -0.12080
C820        C  0.14177024  0.76283839  0.50053921     0.01570
C821        C  0.12367188  0.74087230  0.96862844    -0.10610
C822        C  0.08538573  0.70627885  0.96896527     0.04060
C823        C  0.06544883  0.69100939  0.50153021    -0.10030
H824        H  0.13226643  0.76240310  0.55843726     0.09650
H825        H  0.13824963  0.74993891  0.94282324     0.07180
H826        H  0.03624649  0.66355421  0.50179857     0.07030
O827        O  0.52501856  0.55322164  0.68960250    -0.74360
O828        O  0.47546177  0.54127632  0.64881972    -0.53260
C829        C  0.51174816  0.54968435  0.65701371     0.79370
O830        O  0.38920819  0.41071402  0.80910671    -0.59080
O831        O  0.40062806  0.45906701  0.85156346    -0.51990
C832        C  0.39165193  0.42278784  0.84175852     0.71390
O833        O  0.39482151  0.41497030  0.68918989    -0.73520
O834        O  0.40060496  0.46325819  0.64878457    -0.54080
C835        C  0.39532484  0.42777929  0.65702406     0.77390
O836        O  0.52734363  0.55919539  0.81143422    -0.58660
O837        O  0.47769033  0.54407654  0.85324689    -0.51780
C838        C  0.51472369  0.55624428  0.84403316     0.73980
Zr839      Zr  0.49857419  0.54911556  0.75097545     2.54710
O840        O  0.54174627  0.51779096  0.75241420    -0.79230
O841        O  0.55555198  0.61796041  0.75128315    -0.92640
Zr842      Zr  0.39864828  0.44128652  0.74981637     2.64680
O843        O  0.44282401  0.41100166  0.74991875    -0.97600
O844        O  0.33703079  0.37566332  0.74756373    -0.79660
O845        O  0.44914408  0.49534764  0.71569212    -0.83020
O846        O  0.44907540  0.49416159  0.78546150    -2.17730
O847        O  0.43528034  0.63017151  0.81346723    -0.66410
O848        O  0.42590677  0.58105549  0.85424116    -0.50970
C849        C  0.43259726  0.61707309  0.84592794     0.72360
O850        O  0.30453341  0.49222664  0.68976621    -0.59310
O851        O  0.35460984  0.50711622  0.64876735    -0.51290
C852        C  0.31800701  0.49720449  0.65718315     0.74170
O853        O  0.30235271  0.48471691  0.81234814    -0.70710
O854        O  0.35259497  0.50090100  0.85357583    -0.49390
C855        C  0.31534677  0.48846263  0.84504544     0.75550
O856        O  0.43947327  0.63377217  0.69281456    -0.66040
O857        O  0.43191483  0.58625926  0.65081310    -0.53240
C858        C  0.43953291  0.62217702  0.66029741     0.73930
Zr859      Zr  0.43073551  0.60372190  0.75254345     2.77540
O860        O  0.38741090  0.63494246  0.75131969    -0.96790
O861        O  0.49316022  0.66849527  0.75293240    -0.77610
Zr862      Zr  0.33072453  0.49573425  0.75112890     2.70070
O863        O  0.28896947  0.52858470  0.75199986    -0.78860
O864        O  0.27252639  0.42766232  0.74900255    -0.97940
Zr865      Zr  0.41491903  0.52377776  0.68288962     2.21500
Zr866      Zr  0.41465610  0.52137466  0.82007239     2.11130
O867        O  0.38017527  0.54941536  0.78657705    -2.46630
O868        O  0.38038119  0.55091244  0.71702468    -0.78650
O869        O  0.46517168  0.57640350  0.78644870    -0.70840
O870        O  0.36390163  0.46827956  0.71585987    -2.31800
O871        O  0.46553739  0.57782744  0.71733411    -2.28010
O872        O  0.36424636  0.46746562  0.78518093    -0.72600
H873        H  0.46211667  0.48334396  0.80093393     0.79390
H874        H  0.34453126  0.44778158  0.69990630     0.80480
H875        H  0.36691227  0.55965011  0.80236588     0.82710
H876        H  0.48521035  0.59889097  0.70201508     0.80310
H877        H  0.31869402  0.37988137  0.73122237     0.43350
H878        H  0.27754179  0.41258699  0.76838369     0.42320
H879        H  0.30655111  0.55595970  0.74179556     0.42000
H880        H  0.36913869  0.62317451  0.77222264     0.39930
H881        H  0.51356905  0.66211955  0.76330879     0.43060
H882        H  0.55456010  0.62948841  0.72761745     0.37850
H883        H  0.52397857  0.48953678  0.74417990     0.43960
H884        H  0.45982444  0.42194592  0.77168885     0.40380
H885        H  0.40556407  0.66367888  0.75804569     0.45300
H886        H  0.57975797  0.61429287  0.75023523     0.44020
H887        H  0.42463338  0.38191287  0.75544614     0.44160
H888        H  0.24967062  0.43107021  0.75792070     0.44510
C889        C  0.36773075  0.32445502  0.96753031     0.04060
C890        C  0.35970123  0.28404109  0.96801568    -0.12080
C891        C  0.35930801  0.26419461  0.00059808     0.01570
C892        C  0.36594045  0.28674627  0.53287807    -0.10610
C893        C  0.37247248  0.32685430  0.53239729     0.04060
C894        C  0.37376122  0.34562652  0.99965895    -0.10030
H895        H  0.35466670  0.26947638  0.94222243     0.09650
H896        H  0.36663904  0.27425156  0.55877773     0.07180
H897        H  0.37973746  0.37688679  0.99918876     0.07030
C898        C  0.20845293  0.45744204  0.96870407     0.04060
C899        C  0.16763454  0.44861723  0.96997749    -0.12080
C900        C  0.15055378  0.45397760  0.00213521     0.01570
C901        C  0.17425446  0.46466685  0.53370968    -0.10610
C902        C  0.21330551  0.46958596  0.53354744     0.04060
C903        C  0.23055525  0.46747382  0.00094678    -0.10030
H904        H  0.14975657  0.43847273  0.94566569     0.09650
H905        H  0.16350327  0.47066294  0.55863545     0.07180
H906        H  0.26197980  0.47455748  0.00077963     0.07030
C907        C  0.61961892  0.58811978  0.96779639     0.04060
C908        C  0.65904074  0.59333540  0.96794586    -0.12080
C909        C  0.67665773  0.58823753  0.99989945     0.01570
C910        C  0.65376322  0.57945593  0.53193958    -0.10610
C911        C  0.61566653  0.57745698  0.53245077     0.04060
C912        C  0.59915795  0.58226310  0.00030735    -0.10030
H913        H  0.67473660  0.60014090  0.94254462     0.09650
H914        H  0.66436966  0.57260645  0.55657190     0.07180
H915        H  0.56912385  0.57925662  0.00030675     0.07030
C916        C  0.46517998  0.72114990  0.97128624     0.04060
C917        C  0.46763553  0.75964324  0.97168419    -0.12080
C918        C  0.47714693  0.78297171  0.00355941     0.01570
C919        C  0.48155122  0.76527993  0.53561256    -0.10610
C920        C  0.47571674  0.72563891  0.53589676     0.04060
C921        C  0.47007156  0.70475952  0.00359024    -0.10030
H922        H  0.46066881  0.77033936  0.94712998     0.09650
H923        H  0.48813642  0.78106571  0.56101535     0.07180
H924        H  0.46674708  0.67447144  0.00400834     0.07030
C925        C  0.28527039  0.47766644  0.87521397    -0.04400
C926        C  0.28755078  0.45668914  0.90607063    -0.01520
C927        C  0.25761939  0.44391115  0.93300511     0.03470
C928        C  0.23008121  0.45930463  0.93403510    -0.04400
C929        C  0.22886419  0.48214015  0.90409618    -0.01510
C930        C  0.25489486  0.48950477  0.87422638     0.03470
C931        C  0.32278043  0.45187651  0.91277226     0.38120
C932        C  0.20282221  0.50049581  0.90457887     0.38110
C933        C  0.25286347  0.51306145  0.84417946     0.36530
C934        C  0.25568187  0.41506062  0.96000047     0.36530
N935        N  0.25088731  0.53205864  0.82055541    -0.38290
N936        N  0.25419011  0.39206723  0.98145803    -0.38290
N937        N  0.18223612  0.51534979  0.90472520    -0.37730
N938        N  0.35148267  0.44958304  0.91963846    -0.37740
C939        C  0.28962488  0.49141733  0.62685191    -0.04400
C940        C  0.24938058  0.45850812  0.62683155    -0.01520
C941        C  0.22400397  0.45151130  0.59664724     0.03470
C942        C  0.23754649  0.47885589  0.56731551    -0.04400
C943        C  0.27613647  0.51349293  0.56879364    -0.01510
C944        C  0.30300923  0.51823709  0.59689132     0.03470
C945        C  0.23474960  0.42985378  0.65648628     0.38120
C946        C  0.28779798  0.54467509  0.54138144     0.38110
C947        C  0.34496372  0.54933258  0.59307123     0.36530
C948        C  0.18461379  0.41519093  0.59517361     0.36530
N949        N  0.37849928  0.57317459  0.58822726    -0.38290
N950        N  0.15321593  0.38621417  0.59393726    -0.38290
N951        N  0.29590146  0.56915531  0.51937062    -0.37730
N952        N  0.22269948  0.40663030  0.67986267    -0.37740
C953        C  0.45432594  0.69629588  0.93760825    -0.04400
C954        C  0.47747619  0.71176562  0.90594193    -0.01520
C955        C  0.46875229  0.68688778  0.87512832     0.03470
C956        C  0.43792312  0.64552451  0.87617080    -0.04400
C957        C  0.41333356  0.63099983  0.90726041    -0.01510
C958        C  0.42110323  0.65639458  0.93742133     0.03470
C959        C  0.51158738  0.75278395  0.90543428     0.38120
C960        C  0.37918190  0.59013601  0.90840497     0.38110
C961        C  0.39447519  0.64149877  0.96836672     0.36530
C962        C  0.49335045  0.70379020  0.84321760     0.36530
N963        N  0.37377794  0.63012803  0.49339970    -0.38290
N964        N  0.51342202  0.71813880  0.81814781    -0.38290
N965        N  0.35171859  0.55774906  0.91032333    -0.37730
N966        N  0.53871105  0.78552302  0.90498398    -0.37740
C967        C  0.45030806  0.65271057  0.63141007    -0.04400
C968        C  0.42092985  0.66179013  0.61743267    -0.01520
C969        C  0.42968722  0.68638842  0.58654401     0.03470
C970        C  0.46837250  0.70318581  0.57032914    -0.04400
C971        C  0.49860108  0.69638879  0.58583475    -0.01510
C972        C  0.48952013  0.67101361  0.61626697     0.03470
C973        C  0.38116750  0.64439106  0.63393684     0.38120
C974        C  0.53886531  0.71534314  0.57032256     0.38110
C975        C  0.52054284  0.66387391  0.63222853     0.36530
C976        C  0.39833903  0.69302991  0.57049597     0.36530
N977        N  0.54532670  0.65839001  0.64519638    -0.38290
N978        N  0.37337244  0.69823259  0.55750883    -0.38290
N979        N  0.57104884  0.73065251  0.55801394    -0.37730
N980        N  0.34939698  0.63030394  0.64699740    -0.37740
C981        C  0.54514478  0.56733464  0.87332026    -0.04400
C982        C  0.56472196  0.54407002  0.87911871    -0.01520
C983        C  0.58911370  0.55091800  0.90988466     0.03470
C984        C  0.59719508  0.58354573  0.93345366    -0.04400
C985        C  0.58033184  0.60900535  0.92584880    -0.01510
C986        C  0.55393814  0.60050578  0.89625919     0.03470
C987        C  0.55984491  0.51304602  0.85343479     0.38120
C988        C  0.58993555  0.64384038  0.94862725     0.38110
C989        C  0.53710801  0.62696385  0.88863625     0.36530
C990        C  0.60298930  0.52220624  0.91877009     0.36530
N991        N  0.52434384  0.64869758  0.88260477    -0.38290
N992        N  0.61332833  0.49881526  0.92622922    -0.38290
N993        N  0.59755828  0.67160417  0.96680955    -0.37730
N994        N  0.55697996  0.48906480  0.83249561    -0.37740
C995        C  0.53977070  0.55513368  0.62635531    -0.04400
C996        C  0.58123836  0.58539848  0.62736545    -0.01520
C997        C  0.60636364  0.59237530  0.59702566     0.03470
C998        C  0.59115954  0.56767074  0.56612621    -0.04400
C999        C  0.55097068  0.53529797  0.56624969    -0.01510
C1000       C  0.52487039  0.53056124  0.59502502     0.03470
C1001       C  0.59805270  0.61143115  0.65851176     0.38120
C1002       C  0.53625853  0.50645327  0.53659033     0.38110
C1003       C  0.48229011  0.50139134  0.59069389     0.36530
C1004       C  0.64744224  0.62622420  0.59713215     0.36530
N1005       N  0.44849191  0.47891686  0.58517099    -0.38290
N1006       N  0.68019758  0.65319903  0.59721307    -0.38290
N1007       N  0.52447584  0.48341371  0.01303412    -0.37730
N1008       N  0.61255143  0.63279363  0.68286269    -0.37740
C1009       C  0.37223479  0.34567765  0.93284189    -0.04400
C1010       C  0.40952537  0.36264116  0.91433404    -0.01520
C1011       C  0.41513893  0.38599396  0.88308624     0.03470
C1012       C  0.38366813  0.39265138  0.87047166    -0.04400
C1013       C  0.34504352  0.37179951  0.88650831    -0.01510
C1014       C  0.33960877  0.34929742  0.91833234     0.03470
C1015       C  0.44231014  0.35666750  0.92784084     0.38120
C1016       C  0.31092370  0.37309196  0.86989485     0.38110
C1017       C  0.30073748  0.33034820  0.93642974     0.36530
C1018       C  0.45274469  0.40203303  0.86323047     0.36530
N1019       N  0.26976549  0.31527088  0.95097866    -0.38290
N1020       N  0.48242504  0.41384964  0.84697818    -0.38290
N1021       N  0.28372117  0.37401368  0.85647771    -0.37730
N1022       N  0.46841048  0.35181217  0.93858749    -0.37740
C1023       C  0.38858287  0.39928954  0.62704731    -0.04400
C1024       C  0.35178909  0.38231471  0.60777056    -0.01520
C1025       C  0.34611051  0.35744247  0.57762701     0.03470
C1026       C  0.37737695  0.34970076  0.56630465    -0.04400
C1027       C  0.41397222  0.36603713  0.58598108    -0.01510
C1028       C  0.41941983  0.39050159  0.61652426     0.03470
C1029       C  0.31964829  0.39036603  0.61906917     0.38120
C1030       C  0.44663887  0.35920777  0.57382675     0.38110
C1031       C  0.45751863  0.40845016  0.63599995     0.36530
C1032       C  0.30807607  0.33989696  0.55804764     0.36530
N1033       N  0.48795900  0.42303487  0.65146635    -0.38290
N1034       N  0.27778481  0.32584642  0.54237644    -0.38290
N1035       N  0.47276088  0.35390378  0.56401338    -0.37730
N1036       N  0.29392617  0.39665612  0.62809942    -0.37740
C1037       C  0.82962131  0.56519446  0.62612368    -0.04400
C1038       C  0.85162796  0.58483818  0.59482279    -0.01520
C1039       C  0.83386902  0.59725954  0.56786581     0.03470
C1040       C  0.79135415  0.58146368  0.56657723    -0.04400
C1041       C  0.76829441  0.55887474  0.59673867    -0.01510
C1042       C  0.78772925  0.55322769  0.62721187     0.03470
C1043       C  0.89134592  0.58920467  0.58802844     0.38120
C1044       C  0.72437950  0.53899266  0.59596185     0.38110
C1045       C  0.76334116  0.53072003  0.65781863     0.36530
C1046       C  0.86055083  0.62803716  0.54275659     0.36530
N1047       N  0.74320252  0.51240988  0.68178646    -0.38290
N1048       N  0.88386295  0.65349568  0.52446390    -0.38290
N1049       N  0.68933188  0.52283546  0.59555857    -0.37730
N1050       N  0.92207749  0.59104828  0.58122999    -0.37740
C1051       C  0.82496396  0.56221883  0.87247826    -0.04400
C1052       C  0.78221378  0.54041837  0.87468647    -0.01520
C1053       C  0.76262017  0.54344760  0.90599363     0.03470
C1054       C  0.78486351  0.57351158  0.93208980    -0.04400
C1055       C  0.82637434  0.60003108  0.92604502    -0.01510
C1056       C  0.84694858  0.59114938  0.89926542     0.03470
C1057       C  0.75845097  0.51410677  0.84549461     0.38120
C1058       C  0.84696253  0.63877153  0.94447541     0.38110
C1059       C  0.89061625  0.61027182  0.90098965     0.36530
C1060       C  0.72034575  0.51441399  0.91186002     0.36530
N1061       N  0.92526537  0.62411086  0.90402836    -0.38290
N1062       N  0.68672877  0.49066711  0.91651144    -0.38290
N1063       N  0.86308057  0.67082547  0.95728608    -0.37730
N1064       N  0.73920408  0.49357086  0.82204637    -0.37740
C1065       C  0.81674583  0.39824401  0.63092033    -0.04400
C1066       C  0.81182558  0.35849803  0.62955826    -0.01520
C1067       C  0.79706164  0.33511434  0.59791407     0.03470
C1068       C  0.78449957  0.35019747  0.56860786    -0.04400
C1069       C  0.78420969  0.38735257  0.57204945    -0.01510
C1070       C  0.80053020  0.41133259  0.60294202     0.03470
C1071       C  0.82283814  0.34185771  0.66006988     0.38120
C1072       C  0.76638817  0.40065026  0.54407175     0.38110
C1073       C  0.79807698  0.44826998  0.60672346     0.36530
C1074       C  0.79645914  0.29637424  0.59493079     0.36530
N1075       N  0.79468564  0.47704995  0.60907924    -0.38290
N1076       N  0.79607226  0.26552491  0.59244251    -0.38290
N1077       N  0.75212477  0.41137682  0.52196215    -0.37730
N1078       N  0.83149096  0.32812532  0.68415863    -0.37740
C1079       C  0.79261242  0.34915351  0.93591299    -0.04400
C1080       C  0.82825733  0.35345507  0.91987634    -0.01520
C1081       C  0.84479107  0.37893605  0.88962648     0.03470
C1082       C  0.82588330  0.40040348  0.87558080    -0.04400
C1083       C  0.78946546  0.39489722  0.89085602    -0.01510
C1084       C  0.77285501  0.36938764  0.92097593     0.03470
C1085       C  0.84787729  0.33178579  0.93464311     0.38120
C1086       C  0.76909886  0.41556007  0.87569249     0.38110
C1087       C  0.73579327  0.36457806  0.93709749     0.36530
C1088       C  0.88112319  0.38293853  0.87277415     0.36530
N1089       N  0.70621469  0.36068345  0.94991943    -0.38290
N1090       N  0.90990753  0.38586597  0.85910346    -0.38290
N1091       N  0.75230839  0.43156869  0.86366458    -0.37730
N1092       N  0.86343005  0.31438926  0.94645033    -0.37740
C1093       C  0.00217255  0.47390579  0.63124883    -0.04400
C1094       C  0.97866243  0.43908628  0.61011654    -0.01520
C1095       C  0.99599107  0.42950146  0.58063480     0.03470
C1096       C  0.03687899  0.45540636  0.57135982    -0.04400
C1097       C  0.06102392  0.48918365  0.59364586    -0.01510
C1098       C  0.04401859  0.49734770  0.62422409     0.03470
C1099       C  0.93700015  0.41201737  0.61964566     0.38120
C1100       C  0.10278067  0.51704832  0.58405461     0.38110
C1101       C  0.06981467  0.52944969  0.64874437     0.36530
C1102       C  0.97178120  0.39288394  0.55985726     0.36530
N1103       N  0.09090821  0.55418904  0.66881296    -0.38290
N1104       N  0.95252552  0.36360936  0.54335925    -0.38290
N1105       N  0.13598611  0.53938454  0.57622282    -0.37730
N1106       N  0.90383741  0.38973840  0.62727500    -0.37740
C1107       C  0.04068446  0.46959097  0.93874578    -0.04400
C1108       C  0.03204132  0.50207808  0.93929023    -0.01520
C1109       C  0.01105555  0.50775118  0.91057224     0.03470
C1110       C  0.00333048  0.48461011  0.87840564    -0.04400
C1111       C  0.01445171  0.45358906  0.87714512    -0.01510
C1112       C  0.03169776  0.44528529  0.90759114     0.03470
C1113       C  0.04525651  0.53031935  0.96939654     0.38120
C1114       C  0.00602633  0.42806514  0.84564325     0.38110
C1115       C  0.03866301  0.41057369  0.90730886     0.36530
C1116       C  0.99622189  0.53647141  0.91568447     0.36530
N1117       N  0.04410107  0.38283699  0.90711902    -0.38290
N1118       N  0.98378932  0.55863841  0.92116769    -0.38290
N1119       N  0.99969315  0.40692678  0.82110874    -0.37730
N1120       N  0.05583442  0.55284038  0.99331012    -0.37740
C1121       C  0.01952179  0.64771600  0.62947156    -0.04400
C1122       C  0.05892966  0.65408151  0.62283857    -0.01520
C1123       C  0.08024519  0.67549523  0.59196435     0.03470
C1124       C  0.06287707  0.69221289  0.56837750    -0.04400
C1125       C  0.02545608  0.68988319  0.57739210    -0.01510
C1126       C  0.00439208  0.66858589  0.60849951     0.03470
C1127       C  0.07851881  0.64073965  0.64886281     0.38120
C1128       C  0.00876294  0.70950451  0.55474897     0.38110
C1129       C  0.96889452  0.67058970  0.62046270     0.36530
C1130       C  0.11940653  0.67903829  0.58386665     0.36530
N1131       N  0.94093385  0.67271054  0.63032764    -0.38290
N1132       N  0.15061801  0.68182694  0.57739951    -0.38290
N1133       N  0.99543051  0.72509348  0.53659467    -0.37730
N1134       N  0.09503508  0.63173914  0.67018107    -0.37740
C1135       C  0.02457845  0.64607212  0.87138686    -0.04400
C1136       C  0.01897764  0.67775925  0.88543287    -0.01520
C1137       C  0.03860359  0.69722441  0.91761885     0.03470
C1138       C  0.06559804  0.68655340  0.93461555    -0.04400
C1139       C  0.07452063  0.65802057  0.91826627    -0.01510
C1140       C  0.05430180  0.63809885  0.88645747     0.03470
C1141       C  0.99353125  0.69062134  0.86649826     0.38120
C1142       C  0.10399451  0.64874636  0.93451205     0.38110
C1143       C  0.06456912  0.60998251  0.86872472     0.36530
C1144       C  0.03066528  0.72782788  0.93354311     0.36530
N1145       N  0.07291697  0.58777978  0.85437658    -0.38290
N1146       N  0.02425240  0.75213931  0.94636765    -0.38290
N1147       N  0.12756899  0.64143335  0.94749940    -0.37730
N1148       N  0.97323039  0.70087710  0.85137457    -0.37740
C1149       C  0.60027168  0.15732378  0.56567902    -0.04400
C1150       C  0.59929801  0.18093219  0.59494992    -0.01520
C1151       C  0.57446028  0.16186039  0.62515912     0.03470
C1152       C  0.54826429  0.11922192  0.62545305    -0.04400
C1153       C  0.54889755  0.09599279  0.59569795    -0.01510
C1154       C  0.57664171  0.11456089  0.56744993     0.03470
C1155       C  0.62211089  0.22502922  0.59342092     0.38120
C1156       C  0.51942354  0.05332149  0.59224223     0.38110
C1157       C  0.58077174  0.08935604  0.53999452     0.36530
C1158       C  0.57375589  0.18680604  0.65458001     0.36530
N1159       N  0.58416113  0.06940201  0.51808819    -0.38290
N1160       N  0.57345970  0.20706686  0.67784002    -0.38290
N1161       N  0.49533043  0.01974242  0.58761648    -0.37730
N1162       N  0.64026526  0.26019802  0.59231572    -0.37740
C1163       C  0.55004367  0.13127431  0.87103353    -0.04400
C1164       C  0.58068989  0.12192311  0.88078100    -0.01520
C1165       C  0.60401254  0.13936766  0.91195965     0.03470
C1166       C  0.59797553  0.16761706  0.93233503    -0.04400
C1167       C  0.57010618  0.17982415  0.92059274    -0.01510
C1168       C  0.54630141  0.16172781  0.88990025     0.03470
C1169       C  0.58703105  0.09314145  0.85956116     0.38120
C1170       C  0.56584580  0.21083134  0.94026929     0.38110
C1171       C  0.51946875  0.17594877  0.87674506     0.36530
C1172       C  0.63297100  0.12703246  0.92396337     0.36530
N1173       N  0.49907546  0.18859417  0.86613096    -0.38290
N1174       N  0.65593242  0.11708227  0.93372852    -0.38290
N1175       N  0.56257694  0.23562755  0.95596156    -0.37730
N1176       N  0.59188678  0.07005052  0.84266530    -0.37740
C1177       C  0.38096570  0.11196305  0.62679906    -0.04400
C1178       C  0.35007009  0.08786806  0.60228814    -0.01520
C1179       C  0.34085981  0.10615533  0.57330405     0.03470
C1180       C  0.36413113  0.14856791  0.56709569    -0.04400
C1181       C  0.39434210  0.17285568  0.59248000    -0.01510
C1182       C  0.40204931  0.15465286  0.62255972     0.03470
C1183       C  0.32699269  0.04411087  0.60723256     0.38120
C1184       C  0.41871936  0.21645681  0.58725637     0.38110
C1185       C  0.43292041  0.17989491  0.64837386     0.36530
C1186       C  0.30610772  0.08109702  0.55098182     0.36530
N1187       N  0.45753162  0.20036723  0.66882420    -0.38290
N1188       N  0.27766466  0.06002191  0.53435311    -0.38290
N1189       N  0.43800319  0.25127775  0.58331709    -0.37730
N1190       N  0.30834472  0.00921008  0.61082650    -0.37740
C1191       C  0.37736495  0.11436661  0.87097463    -0.04400
C1192       C  0.34643253  0.09033853  0.89545023    -0.01520
C1193       C  0.33804127  0.10874285  0.92474629     0.03470
C1194       C  0.36388236  0.15031712  0.93248495    -0.04400
C1195       C  0.39365803  0.17466442  0.90688714    -0.01510
C1196       C  0.39781718  0.15704335  0.87484191     0.03470
C1197       C  0.32179719  0.04696817  0.88947673     0.38120
C1198       C  0.42115442  0.21739163  0.91381962     0.38110
C1199       C  0.42225956  0.18289871  0.84569327     0.36530
C1200       C  0.30090775  0.08567503  0.94482392     0.36530
N1201       N  0.44125548  0.20380719  0.82233255    -0.38290
N1202       N  0.27019441  0.06704712  0.95930023    -0.38290
N1203       N  0.44321790  0.25144342  0.91935698    -0.37730
N1204       N  0.30188228  0.01237151  0.88486793    -0.37740
C1205       C  0.25994695  0.88318106  0.56385980    -0.04400
C1206       C  0.24062516  0.88226878  0.59688347    -0.01520
C1207       C  0.26371464  0.90175968  0.62807318     0.03470
C1208       C  0.30665597  0.92375922  0.62666887    -0.04400
C1209       C  0.32582144  0.92456584  0.59364559    -0.01510
C1210       C  0.30299927  0.90480606  0.56285750     0.03470
C1211       C  0.19680025  0.86353960  0.59852089     0.38120
C1212       C  0.36971762  0.94619554  0.59016017     0.38110
C1213       C  0.32559523  0.90910411  0.53010511     0.36530
C1214       C  0.24272347  0.90027051  0.66113517     0.36530
N1215       N  0.34654178  0.91640872  0.00537391    -0.38290
N1216       N  0.22560012  0.89867745  0.68738975    -0.38290
N1217       N  0.40435384  0.96352474  0.58555643    -0.37730
N1218       N  0.16185904  0.84865293  0.59994177    -0.37740
C1219       C  0.30388152  0.92465666  0.87398172    -0.04400
C1220       C  0.31823887  0.90946486  0.90194514    -0.01520
C1221       C  0.29135951  0.88310588  0.92787919     0.03470
C1222       C  0.25237784  0.87867392  0.93110675    -0.04400
C1223       C  0.23698646  0.89235119  0.90306620    -0.01510
C1224       C  0.26219874  0.91384612  0.87371198     0.03470
C1225       C  0.36076542  0.92224582  0.90606436     0.38120
C1226       C  0.19520433  0.88370639  0.90420107     0.38110
C1227       C  0.24540868  0.92646409  0.84451007     0.36530
C1228       C  0.30271522  0.85818943  0.94968941     0.36530
N1229       N  0.23117419  0.93606863  0.82152171    -0.38290
N1230       N  0.31137188  0.83767088  0.46650560    -0.38290
N1231       N  0.16168512  0.87630881  0.90500713    -0.37730
N1232       N  0.39449439  0.93294186  0.91187144    -0.37740
C1233       C  0.46919685  0.89478699  0.57065866    -0.04400
C1234       C  0.43151137  0.87927217  0.58823442    -0.01520
C1235       C  0.42814885  0.89823169  0.61967029     0.03470
C1236       C  0.46233364  0.93298692  0.63327619    -0.04400
C1237       C  0.50062703  0.94649008  0.61744745    -0.01510
C1238       C  0.50399447  0.92773440  0.58583251     0.03470
C1239       C  0.39604891  0.84453651  0.57339207     0.38120
C1240       C  0.53623165  0.98039372  0.63312225     0.38110
C1241       C  0.54315376  0.94252859  0.56872617     0.36530
C1242       C  0.38948513  0.88217909  0.63799364     0.36530
N1243       N  0.57443851  0.95434462  0.55515379    -0.38290
N1244       N  0.35870933  0.86929963  0.65271355    -0.38290
N1245       N  0.56455293  0.00755093  0.64558192    -0.37730
N1246       N  0.36781839  0.81678782  0.56150941    -0.37740
C1247       C  0.46841134  0.94235636  0.87685691    -0.04400
C1248       C  0.49392868  0.96468953  0.90568868    -0.01520
C1249       C  0.50204012  0.94456471  0.93380546     0.03470
C1250       C  0.47980284  0.90170403  0.93672936    -0.04400
C1251       C  0.45319204  0.87913276  0.90839289    -0.01510
C1252       C  0.44886428  0.89931361  0.87798933     0.03470
C1253       C  0.50897029  0.00801713  0.90865621     0.38120
C1254       C  0.42799426  0.83533185  0.91132783     0.38110
C1255       C  0.42066148  0.87558611  0.84977687     0.36530
C1256       C  0.53352820  0.96823659  0.95973912     0.36530
N1257       N  0.39785919  0.85636369  0.82759510    -0.38290
N1258       N  0.55888834  0.98712672  0.48019444    -0.38290
N1259       N  0.40776798  0.80041828  0.91358973    -0.37730
N1260       N  0.51953617  0.04216220  0.91283624    -0.37740
loop_ 
_geom_bond_atom_site_label_1 
_geom_bond_atom_site_label_2 
_geom_bond_distance 
_geom_bond_site_symmetry_2 
_ccdc_geom_bond_type 
C1            C2   1.394       .  A
C1            C6   1.395       .  A
C1          C603   1.481       .  S
C2          C633   1.404   1_554  A
C2            H7   1.084       .  S
C3            C4   1.408       .  A
C3          C632   1.404       .  A
C3          C620   1.500       .  S
C4            C5   1.416       .  A
C4            H8   1.081       .  S
C5          C636   1.411       .  A
C5          C288   1.504       .  S
C6          C635   1.411       .  A
C6            H9   1.079       .  S
C10          C11   1.403   1_554  A
C10          C15   1.416       .  A
C10         C575   1.515       .  S
C11         C642   1.396       .  A
C11          H16   1.082       .  S
C12          C13   1.392       .  A
C12         C641   1.396       .  A
C12         C592   1.485       .  S
C13         C644   1.414       .  A
C13          H17   1.076       .  S
C14          C15   1.423   1_556  A
C14         C643   1.414       .  A
C14         C190   1.514   1_556  S
C15          H18   1.079       .  S
O19         Zr31   2.444       .  S
O19          C21   1.289       .  A
O20         Zr57   2.438   1_565  S
O20          C21   1.290       .  A
C21         C589   1.493       .  S
O22         Zr34   2.430       .  S
O22          C24   1.284       .  A
O23         Zr58   2.426   1_565  S
O23          C24   1.286       .  A
C24         C606   1.473       .  S
O25         Zr34   2.441       .  S
O25          C27   1.288       .  A
O26         Zr57   2.433   1_565  S
O26          C27   1.289       .  A
C27         C617   1.493       .  S
O28         Zr31   2.467       .  S
O28          C30   1.292       .  A
O29         Zr58   2.405   1_565  S
O29          C30   1.283       .  A
C30         C578   1.508       .  S
Zr31         O32   2.434       .  S
Zr31         O33   2.432       .  S
Zr31         O37   2.382       .  S
Zr31         O38   2.365       .  S
Zr31         O61   2.370   1_565  S
Zr31         O63   2.378   1_565  S
O32          H75   0.990       .  S
O33          H74   0.990       .  S
O33          H78   0.990       .  S
Zr34         O35   2.435       .  S
Zr34         O36   2.435       .  S
Zr34         O38   2.375       .  S
Zr34         O37   2.371       .  S
Zr34         O62   2.367   1_565  S
Zr34         O64   2.377   1_565  S
O35          H76   0.990       .  S
O35          H79   0.990       .  S
O36          H69   0.990   1_565  S
O37         Zr57   2.382   1_565  S
O38         Zr58   2.379   1_565  S
O38          H65   0.965       .  S
O39         Zr51   2.441       .  S
O39          C41   1.287       .  A
O40         Zr58   2.427       .  S
O40          C41   1.287       .  A
C41         C547   1.483       .  S
O42         Zr54   2.433       .  S
O42          C44   1.285       .  A
O43         Zr57   2.439       .  S
O43          C44   1.290       .  A
C44         C533   1.478       .  S
O45         Zr54   2.462       .  S
O45          C47   1.292       .  A
O46         Zr58   2.411       .  S
O46          C47   1.284       .  A
C47         C522   1.497       .  S
O48         Zr51   2.435       .  S
O48          C50   1.286       .  A
O49         Zr57   2.429       .  S
O49          C50   1.288       .  A
C50         C561   1.481       .  S
Zr51         O52   2.433       .  S
Zr51         O53   2.434       .  S
Zr51         O59   2.373       .  S
Zr51         O60   2.373       .  S
Zr51         O63   2.375       .  S
Zr51         O61   2.374       .  S
O52          H72   0.989       .  S
O52          H77   0.990       .  S
O53          H73   0.990       .  S
Zr54         O55   2.433       .  S
Zr54         O56   2.435       .  S
Zr54         O60   2.381       .  S
Zr54         O59   2.365       .  S
Zr54         O64   2.368       .  S
Zr54         O62   2.379       .  S
O55          H71   0.990       .  S
O56          H70   0.990       .  S
O56          H80   0.990       .  S
Zr57         O60   2.381       .  S
Zr57         O62   2.384       .  S
Zr57         O63   2.385       .  S
Zr58         O59   2.376       .  S
Zr58         O61   2.372       .  S
Zr58         O64   2.378       .  S
O59          H67   0.966       .  S
O62          H66   0.966       .  S
O63          H68   0.966       .  S
C81          C82   1.409       .  A
C81          C86   1.402   1_554  A
C81         C550   1.500       .  S
C82          C83   1.418       .  A
C82          H87   1.077       .  S
C83         C714   1.416   1_554  A
C83         C891   1.519       .  S
C84          C85   1.400       .  A
C84         C713   1.416       .  A
C84          H88   1.074       .  S
C85         C716   1.399       .  A
C85         C564   1.494       .  S
C86         C715   1.399       .  A
C86          H89   1.084       .  S
C90          C91   1.401   1_554  A
C90          C95   1.405       .  A
C90         C519   1.498       .  S
C91         C722   1.392       .  A
C91          H96   1.084       .  S
C92          C93   1.395       .  A
C92         C721   1.392       .  A
C92         C536   1.478       .  S
C93         C724   1.412       .  A
C93          H97   1.078       .  S
C94          C95   1.417   1_556  A
C94         C723   1.412       .  A
C94         C802   1.504   1_556  S
C95          H98   1.080       .  S
O99        Zr111   2.469       .  S
O99         C101   1.294       .  A
O100       Zr137   2.403       .  S
O100        C101   1.283       .  A
C101        C480   1.501   1_655  S
O102       Zr114   2.427   1_455  S
O102        C104   1.283   1_455  A
O103       Zr138   2.451       .  S
O103        C104   1.292       .  A
C104        C491   1.482   1_655  S
O105       Zr114   2.430   1_455  S
O105        C107   1.284   1_455  A
O106       Zr137   2.435       .  S
O106        C107   1.288       .  A
C107        C505   1.478   1_655  S
O108       Zr111   2.447       .  S
O108        C110   1.289       .  A
O109       Zr138   2.442       .  S
O109        C110   1.290       .  A
C110        C463   1.490   1_655  S
Zr111       O112   2.434   1_655  S
Zr111       O113   2.432       .  S
Zr111       O117   2.371       .  S
Zr111       O118   2.378       .  S
Zr111       O141   2.376       .  S
Zr111       O143   2.366       .  S
O112        H155   0.990       .  S
O113        H154   0.990       .  S
O113        H158   0.990       .  S
Zr114       O115   2.436   1_655  S
Zr114       O116   2.436       .  S
Zr114       O118   2.378       .  S
Zr114       O117   2.370       .  S
Zr114       O142   2.376       .  S
Zr114       O144   2.374       .  S
O115        H156   0.990       .  S
O115        H159   0.990       .  S
O116        H149   0.990       .  S
O117       Zr137   2.374       .  S
O118       Zr138   2.386       .  S
O118        H145   0.966   1_655  S
O119       Zr131   2.438       .  S
O119        C121   1.287       .  A
O120       Zr138   2.434       .  S
O120        C121   1.290       .  A
C121        C435   1.486       .  S
O122       Zr134   2.450       .  S
O122        C124   1.289       .  A
O123       Zr137   2.415       .  S
O123        C124   1.285       .  A
C124        C421   1.484       .  S
O125       Zr134   2.456       .  S
O125        C127   1.291       .  A
O126       Zr138   2.431       .  S
O126        C127   1.289       .  A
C127        C407   1.503       .  S
O128       Zr131   2.447       .  S
O128        C130   1.288       .  A
O129       Zr137   2.423       .  S
O129        C130   1.286       .  A
C130        C452   1.478       .  S
Zr131       O132   2.435       .  S
Zr131       O133   2.432       .  S
Zr131       O139   2.374       .  S
Zr131       O140   2.369       .  S
Zr131       O143   2.368       .  S
Zr131       O141   2.377       .  S
O132        H152   0.990       .  S
O132        H157   0.990       .  S
O133        H153   0.990       .  S
Zr134       O135   2.430       .  S
Zr134       O136   2.434       .  S
Zr134       O140   2.376       .  S
Zr134       O139   2.373       .  S
Zr134       O144   2.375       .  S
Zr134       O142   2.376       .  S
O135        H151   0.990       .  S
O136        H150   0.990       .  S
O136        H160   0.990       .  S
Zr137       O140   2.376       .  S
Zr137       O142   2.380       .  S
Zr137       O143   2.379       .  S
Zr138       O139   2.387       .  S
Zr138       O141   2.381       .  S
Zr138       O144   2.382       .  S
O139        H147   0.966       .  S
O142        H146   0.966       .  S
O143        H148   0.965       .  S
C161        C162   1.395       .  A
C161        C166   1.402       .  A
C161        C466   1.493       .  S
C162        C793   1.400   1_554  A
C162        H167   1.084       .  S
C163        C164   1.403       .  A
C163        C792   1.400       .  A
C163        C477   1.491       .  S
C164        C795   1.411       .  A
C164        H168   1.080       .  S
C165        C166   1.417       .  A
C165        C794   1.411   1_554  A
C165        C900   1.503       .  S
C166        H169   1.080       .  S
C170        C171   1.399       .  A
C170        C175   1.398       .  A
C170        C438   1.483       .  S
C171        C802   1.412       .  A
C171        H176   1.079       .  S
C172        C173   1.416       .  A
C172        C801   1.412       .  A
C172        C724   1.504       .  S
C173        C174   1.400       .  A
C173        H177   1.078       .  S
C174        C805   1.394       .  A
C174        C449   1.482       .  S
C175        C804   1.394   1_554  A
C175        H178   1.084       .  S
C179        C180   1.412       .  A
C179        C184   1.405   1_554  A
C179        C410   1.513       .  S
C180        C811   1.421   1_554  A
C180        H185   1.080       .  S
C181        C182   1.413       .  A
C181        C810   1.421       .  A
C181        C279   1.511       .  S
C182        C183   1.398       .  A
C182        H186   1.077       .  S
C183        C814   1.401       .  A
C183        C424   1.493       .  S
C184        C813   1.401       .  A
C184        H187   1.083       .  S
C188        C189   1.407       .  A
C188        C193   1.398       .  A
C188        C494   1.487       .  S
C189        C190   1.416       .  A
C189        H194   1.080       .  S
C190        C821   1.417   1_554  A
C191        C192   1.398       .  A
C191        C820   1.417       .  A
C191        H195   1.076       .  S
C192        C823   1.394       .  A
C192        C508   1.484       .  S
C193        C822   1.394   1_554  A
C193        H196   1.084       .  S
O197       Zr209   2.467       .  S
O197        C199   1.293       .  A
O198       Zr235   2.411       .  S
O198        C199   1.284       .  A
C199        C365   1.501       .  S
O200       Zr212   2.431       .  S
O200        C202   1.284       .  A
O201       Zr236   2.436       .  S
O201        C202   1.289       .  A
C202        C382   1.477       .  S
O203       Zr212   2.439       .  S
O203        C205   1.286       .  A
O204       Zr235   2.427       .  S
O204        C205   1.287       .  A
C205        C393   1.481       .  S
O206       Zr209   2.445       .  S
O206        C208   1.288       .  A
O207       Zr236   2.437       .  S
O207        C208   1.289       .  A
C208        C351   1.488       .  S
Zr209       O210   2.433       .  S
Zr209       O211   2.433       .  S
Zr209       O215   2.372       .  S
Zr209       O216   2.378       .  S
Zr209       O239   2.378       .  S
Zr209       O241   2.365       .  S
O210        H253   0.990       .  S
O211        H252   0.990       .  S
O211        H256   0.990       .  S
Zr212       O213   2.436       .  S
Zr212       O214   2.435       .  S
Zr212       O216   2.378       .  S
Zr212       O215   2.369       .  S
Zr212       O240   2.375       .  S
Zr212       O242   2.375       .  S
O213        H254   0.990       .  S
O213        H257   0.990       .  S
O214        H247   0.990       .  S
O215       Zr235   2.375       .  S
O216       Zr236   2.387       .  S
O216        H243   0.966       .  S
O217       Zr229   2.448       .  S
O217        C219   1.289       .  A
O218       Zr236   2.432       .  S
O218        C219   1.289       .  A
C219        C326   1.498       .  S
O220       Zr232   2.464       .  S
O220        C222   1.293       .  A
O221       Zr235   2.408       .  S
O221        C222   1.284       .  A
C222        C309   1.497       .  S
O223       Zr232   2.465       .  S
O223        C225   1.293       .  A
O224       Zr236   2.427       .  S
O224        C225   1.288       .  A
C225        C295   1.506       .  S
O226       Zr229   2.440       .  S
O226        C228   1.286       .  A
O227       Zr235   2.427       .  S
O227        C228   1.287       .  A
C228        C337   1.478       .  S
Zr229       O230   2.435       .  S
Zr229       O231   2.431       .  S
Zr229       O237   2.373       .  S
Zr229       O238   2.373       .  S
Zr229       O241   2.376       .  S
Zr229       O239   2.373       .  S
O230        H250   0.990       .  S
O230        H255   0.990       .  S
O231        H251   0.990       .  S
Zr232       O233   2.432       .  S
Zr232       O234   2.433       .  S
Zr232       O238   2.377       .  S
Zr232       O237   2.374       .  S
Zr232       O242   2.375       .  S
Zr232       O240   2.372       .  S
O233        H249   0.990       .  S
O234        H248   0.990       .  S
O234        H258   0.990       .  S
Zr235       O238   2.379       .  S
Zr235       O240   2.380       .  S
Zr235       O241   2.377       .  S
Zr236       O237   2.386       .  S
Zr236       O239   2.377       .  S
Zr236       O242   2.380       .  S
O237        H245   0.966       .  S
O240        H244   0.966       .  S
O241        H246   0.965       .  S
C259        C260   1.398       .  A
C259        C264   1.392       .  A
C259        C379   1.482       .  S
C260        C261   1.419       .  A
C260        H265   1.075       .  S
C261        C892   1.421       .  A
C261        C713   1.519       .  S
C262        C263   1.406       .  A
C262        C891   1.421       .  A
C262        H266   1.077       .  S
C263        C894   1.396   1_554  A
C263        C396   1.487       .  S
C264        C893   1.396       .  A
C264        H267   1.084       .  S
C268        C269   1.412       .  A
C268        C273   1.403       .  A
C268        C298   1.511       .  S
C269        C270   1.420       .  A
C269        H274   1.081       .  S
C270        C901   1.411       .  A
C270        C795   1.503       .  S
C271        C272   1.395       .  A
C271        C900   1.411       .  A
C271        H275   1.080       .  S
C272        C903   1.398       .  A
C272        C312   1.492       .  S
C273        C902   1.398       .  A
C273        H276   1.083       .  S
C277        C278   1.404       .  A
C277        C282   1.394       .  A
C277        C354   1.495       .  S
C278        C279   1.419       .  A
C278        H283   1.078       .  S
C279        C910   1.415       .  A
C280        C281   1.404       .  A
C280        C909   1.415   1_554  A
C280        H284   1.079       .  S
C281        C912   1.400       .  A
C281        C368   1.494       .  S
C282        C911   1.400       .  A
C282        H285   1.084       .  S
C286        C287   1.405       .  A
C286        C291   1.402       .  A
C286        C323   1.496       .  S
C287        C288   1.414       .  A
C287        H292   1.080       .  S
C288        C919   1.414       .  A
C289        C290   1.397       .  A
C289        C918   1.414       .  A
C289        H293   1.079       .  S
C290        C921   1.395       .  A
C290        C340   1.484       .  S
C291        C920   1.395       .  A
C291        H294   1.084       .  S
C295        C296   1.418       .  A
C295        C300   1.419       .  A
C296        C297   1.409       .  A
C296        C301   1.449       .  S
C297        C298   1.416       .  A
C297        C304   1.453       .  S
C298        C299   1.420       .  A
C299        C300   1.420       .  A
C299        C302   1.451       .  S
C300        C303   1.451       .  S
C301        N308   1.157       .  T
C302        N307   1.158       .  T
C303        N305   1.157       .  T
C304        N306   1.157       .  T
C309        C310   1.419       .  A
C309        C314   1.421       .  A
C310        C311   1.415       .  A
C310        C315   1.450       .  S
C311        C312   1.413       .  A
C311        C318   1.451       .  S
C312        C313   1.407       .  A
C313        C314   1.406       .  A
C313        C316   1.451       .  S
C314        C317   1.448       .  S
C315        N322   1.157       .  T
C316        N321   1.156       .  T
C317        N319   1.156       .  T
C318        N320   1.157       .  T
C323        C324   1.413       .  A
C323        C328   1.413       .  A
C324        C325   1.414       .  A
C324        C329   1.452       .  S
C325        C326   1.420       .  A
C325        C332   1.450       .  S
C326        C327   1.416       .  A
C327        C328   1.409       .  A
C327        C330   1.449       .  S
C328        C331   1.450       .  S
C329        N336   1.157       .  T
C330        N335   1.156       .  T
C331        N963   1.156       .  T
C332        N334   1.157       .  T
N333        C961   1.156       .  T
C337        C338   1.409       .  A
C337        C342   1.412       .  A
C338        C339   1.409       .  A
C338        C343   1.451       .  S
C339        C340   1.415       .  A
C339        C346   1.452       .  S
C340        C341   1.409       .  A
C341        C342   1.411       .  A
C341        C344   1.450       .  S
C342        C345   1.450       .  S
C343        N350   1.157       .  T
C344        N349   1.157       .  T
C345        N347   1.157       .  T
C346        N348   1.157       .  T
C351        C352   1.410       .  A
C351        C356   1.412       .  A
C352        C353   1.411       .  A
C352        C357   1.450       .  S
C353        C354   1.416       .  A
C353        C360   1.449       .  S
C354        C355   1.413       .  A
C355        C356   1.413       .  A
C355        C358   1.451       .  S
C356        C359   1.446       .  S
C357        N364   1.157       .  T
C358        N363   1.157       .  T
C359        N361   1.155       .  T
C360        N362   1.156       .  T
C365        C366   1.420       .  A
C365        C370   1.422       .  A
C366        C367   1.415       .  A
C366        C371   1.449       .  S
C367        C368   1.413       .  A
C367        C374   1.452       .  S
C368        C369   1.411       .  A
C369        C370   1.407       .  A
C369        C372   1.455       .  S
C370        C373   1.449       .  S
C371        N378   1.157       .  T
C372       N1007   1.158       .  T
C373        N375   1.156       .  T
C374        N376   1.157       .  T
N377       C1002   1.158       .  T
C379        C380   1.412       .  A
C379        C384   1.411       .  A
C380        C381   1.409       .  A
C380        C385   1.451       .  S
C381        C382   1.409       .  A
C381        C388   1.448       .  S
C382        C383   1.410       .  A
C383        C384   1.410       .  A
C383        C386   1.451       .  S
C384        C387   1.449       .  S
C385        N392   1.157       .  T
C386        N391   1.157       .  T
C387        N389   1.157       .  T
C388        N390   1.156       .  T
C393        C394   1.410       .  A
C393        C398   1.413       .  A
C394        C395   1.409       .  A
C394        C399   1.450       .  S
C395        C396   1.412       .  A
C395        C402   1.451       .  S
C396        C397   1.413       .  A
C397        C398   1.413       .  A
C397        C400   1.450       .  S
C398        C401   1.451       .  S
C399        N406   1.157       .  T
C400        N405   1.157       .  T
C401        N403   1.157       .  T
C402        N404   1.157       .  T
C407        C408   1.413       .  A
C407        C412   1.420       .  A
C408        C409   1.406       .  A
C408        C413   1.450       .  S
C409        C410   1.416       .  A
C409        C416   1.447       .  S
C410        C411   1.421       .  A
C411        C412   1.421       .  A
C411        C414   1.451       .  S
C412        C415   1.450       .  S
C413        N420   1.157       .  T
C414        N419   1.158       .  T
C415        N417   1.157       .  T
C416        N418   1.156       .  T
C421        C422   1.414       .  A
C421        C426   1.410       .  A
C422        C423   1.415       .  A
C422        C427   1.449       .  S
C423        C424   1.415       .  A
C423        C430   1.447       .  S
C424        C425   1.408       .  A
C425        C426   1.401       .  A
C425        C428   1.448       .  S
C426        C429   1.445       .  S
C427        N434   1.157       .  T
C428        N433   1.157       .  T
C429        N431   1.155       .  T
C430        N432   1.156       .  T
C435        C436   1.415       .  A
C435        C440   1.411       .  A
C436        C437   1.412       .  A
C436        C441   1.450       .  S
C437        C438   1.412       .  A
C437        C444   1.451       .  S
C438        C439   1.409       .  A
C439        C440   1.405       .  A
C439        C442   1.453       .  S
C440        C443   1.444       .  S
C441        N448   1.157       .  T
C442        N447   1.157       .  T
C443        N445   1.154       .  T
C444        N446   1.157       .  T
C449        C450   1.409       .  A
C449        C454   1.413       .  A
C450        C451   1.411       .  A
C450        C455   1.450       .  S
C451        C452   1.412       .  A
C451        C458   1.449       .  S
C452        C453   1.408       .  A
C453        C454   1.408       .  A
C453        C456   1.447       .  S
C454        C457   1.452       .  S
C455        N462   1.157       .  T
C456        N461   1.156       .  T
C457        N459   1.157       .  T
C458        N460   1.157       .  T
C463        C464   1.411   1_455  A
C463        C468   1.410       .  A
C464        C465   1.412       .  A
C464        C469   1.443       .  S
C465        C466   1.411   1_655  A
C465        C472   1.451       .  S
C466        C467   1.416       .  A
C467        C468   1.412       .  A
C467        C470   1.451       .  S
C468        C471   1.447       .  S
C469        N476   1.154       .  T
C470        N475   1.157       .  T
C471        N473   1.156       .  T
C472        N474   1.157       .  T
C477        C478   1.410       .  A
C477        C482   1.412       .  A
C478        C479   1.406       .  A
C478        C483   1.455       .  S
C479        C480   1.424       .  A
C479        C486   1.452   1_455  S
C480        C481   1.420       .  A
C481        C482   1.414       .  A
C481        C484   1.449       .  S
C482        C485   1.452       .  S
C483        N490   1.157       .  T
C484        N489   1.157   1_455  T
C485        N487   1.157       .  T
C486        N488   1.157       .  T
C491        C492   1.410       .  A
C491        C496   1.409       .  A
C492        C493   1.409       .  A
C492        C497   1.447       .  S
C493        C494   1.412       .  A
C493        C500   1.451       .  S
C494        C495   1.414       .  A
C495        C496   1.412       .  A
C495        C498   1.450       .  S
C496        C499   1.450   1_455  S
C497        N504   1.156       .  T
C498        N503   1.157   1_455  T
C499        N501   1.157       .  T
C500        N502   1.157       .  T
C505        C506   1.409       .  A
C505        C510   1.411       .  A
C506        C507   1.411       .  A
C506        C511   1.451   1_455  S
C507        C508   1.413       .  A
C507        C514   1.450       .  S
C508        C509   1.410       .  A
C509        C510   1.410       .  A
C509        C512   1.450       .  S
C510        C513   1.451       .  S
C511        N518   1.157       .  T
C512        N517   1.157       .  T
C513        N515   1.157       .  T
C514        N516   1.157       .  T
C519        C520   1.417       .  A
C519        C524   1.411       .  A
C520        C521   1.416       .  A
C520        C525   1.452       .  S
C521        C522   1.417       .  A
C521        C528   1.451       .  S
C522        C523   1.418       .  A
C523        C524   1.407       .  A
C523        C526   1.447       .  S
C524        C527   1.453       .  S
C525        N532   1.157       .  T
C526        N531   1.156       .  T
C527        N529   1.157       .  T
C528        N530   1.157       .  T
C533        C534   1.411       .  A
C533        C538   1.409       .  A
C534        C535   1.410       .  A
C534        C539   1.452       .  S
C535        C536   1.412       .  A
C535        C542   1.450       .  S
C536        C537   1.407       .  A
C537        C538   1.407       .  A
C537        C540   1.451       .  S
C538        C541   1.442       .  S
C539        N546   1.157       .  T
C540        N545   1.157       .  T
C541        N543   1.154       .  T
C542        N544   1.157       .  T
C547        C548   1.409       .  A
C547        C552   1.412       .  A
C548        C549   1.410       .  A
C548        C553   1.452       .  S
C549        C550   1.417       .  A
C549        C556   1.448       .  S
C550        C551   1.419       .  A
C551        C552   1.413       .  A
C551        C554   1.451       .  S
C552        C555   1.451       .  S
C553        N560   1.157       .  T
C554        N559   1.157       .  T
C555        N557   1.157       .  T
C556        N558   1.156       .  T
C561        C562   1.409       .  A
C561        C566   1.410       .  A
C562        C563   1.408       .  A
C562        C567   1.449       .  S
C563        C564   1.413       .  A
C563        C570   1.448       .  S
C564        C565   1.418       .  A
C565        C566   1.410       .  A
C565        C568   1.451       .  S
C566        C569   1.449       .  S
C567        N574   1.156       .  T
C568        N573   1.157       .  T
C569        N571   1.157       .  T
C570        N572   1.156       .  T
C575        C576   1.421       .  A
C575        C580   1.422       .  A
C576        C577   1.422       .  A
C576        C581   1.451       .  S
C577        C578   1.419       .  A
C577        C584   1.450       .  S
C578        C579   1.419       .  A
C579        C580   1.408       .  A
C579        C582   1.455       .  S
C580        C583   1.451       .  S
C581        N588   1.158       .  T
C582        N587   1.156       .  T
C583       N1215   1.156       .  T
C584        N586   1.157       .  T
N585       C1213   1.156       .  T
C589        C590   1.415       .  A
C589        C594   1.422       .  A
C590        C591   1.402       .  A
C590        C595   1.444       .  S
C591        C592   1.404       .  A
C591        C598   1.452       .  S
C592        C593   1.407       .  A
C593        C594   1.416       .  A
C593        C596   1.449       .  S
C594        C597   1.448       .  S
C595        N602   1.154       .  T
C596        N601   1.157       .  T
C597        N599   1.157       .  T
C598       N1230   1.158       .  T
N600       C1228   1.158       .  T
C603        C604   1.410       .  A
C603        C608   1.413       .  A
C604        C605   1.408       .  A
C604        C609   1.450       .  S
C605        C606   1.411       .  A
C605        C612   1.451       .  S
C606        C607   1.409       .  A
C607        C608   1.409       .  A
C607        C610   1.451       .  S
C608        C611   1.450       .  S
C609        N616   1.157       .  T
C610        N615   1.157   1_565  T
C611        N613   1.157       .  T
C612        N614   1.157       .  T
C617        C618   1.413       .  A
C617        C622   1.416       .  A
C618        C619   1.409       .  A
C618        C623   1.446   1_565  S
C619        C620   1.414       .  A
C619        C626   1.451       .  S
C620        C621   1.418       .  A
C621        C622   1.414       .  A
C621        C624   1.452       .  S
C622        C625   1.452       .  S
C623        N630   1.155       .  T
C624        N629   1.157       .  T
C625        N627   1.157       .  T
C626       N1258   1.157       .  T
N628       C1256   1.157       .  T
C631        C632   1.394       .  A
C631        C636   1.395       .  A
C631       C1233   1.481       .  S
C632        H637   1.084       .  S
C633        C634   1.408       .  A
C633       C1250   1.500       .  S
C634        C635   1.416   1_556  A
C634        H638   1.081       .  S
C635        C918   1.504       .  S
C636        H639   1.079       .  S
C640        C641   1.403       .  A
C640        C645   1.416       .  A
C640       C1205   1.515       .  S
C641        H646   1.082       .  S
C642        C643   1.392       .  A
C642       C1222   1.485       .  S
C643        H647   1.076       .  S
C644        C645   1.423       .  A
C644        C820   1.514       .  S
C645        H648   1.079       .  S
O649       Zr661   2.444       .  S
O649        C651   1.289       .  A
O650       Zr687   2.438   1_565  S
O650        C651   1.290       .  A
C651       C1219   1.493       .  S
O652       Zr664   2.430       .  S
O652        C654   1.284       .  A
O653       Zr688   2.426   1_565  S
O653        C654   1.286       .  A
C654       C1236   1.473       .  S
O655       Zr664   2.441       .  S
O655        C657   1.288       .  A
O656       Zr687   2.433   1_565  S
O656        C657   1.289       .  A
C657       C1247   1.493       .  S
O658       Zr661   2.467       .  S
O658        C660   1.292       .  A
O659       Zr688   2.405   1_565  S
O659        C660   1.283       .  A
C660       C1208   1.508       .  S
Zr661       O662   2.434       .  S
Zr661       O663   2.432       .  S
Zr661       O667   2.382       .  S
Zr661       O668   2.365       .  S
Zr661       O691   2.370   1_565  S
Zr661       O693   2.378   1_565  S
O662        H705   0.990       .  S
O663        H704   0.990       .  S
O663        H708   0.990       .  S
Zr664       O665   2.435       .  S
Zr664       O666   2.435       .  S
Zr664       O668   2.375       .  S
Zr664       O667   2.371       .  S
Zr664       O692   2.367   1_565  S
Zr664       O694   2.377   1_565  S
O665        H706   0.990       .  S
O665        H709   0.990       .  S
O666        H699   0.990   1_565  S
O667       Zr687   2.382   1_565  S
O668       Zr688   2.379   1_565  S
O668        H695   0.965       .  S
O669       Zr681   2.441       .  S
O669        C671   1.287       .  A
O670       Zr688   2.427       .  S
O670        C671   1.287       .  A
C671       C1177   1.483       .  S
O672       Zr684   2.433       .  S
O672        C674   1.285       .  A
O673       Zr687   2.439       .  S
O673        C674   1.290       .  A
C674       C1163   1.478       .  S
O675       Zr684   2.462       .  S
O675        C677   1.292       .  A
O676       Zr688   2.411       .  S
O676        C677   1.284       .  A
C677       C1152   1.497       .  S
O678       Zr681   2.435       .  S
O678        C680   1.286       .  A
O679       Zr687   2.429       .  S
O679        C680   1.288       .  A
C680       C1191   1.481       .  S
Zr681       O682   2.433       .  S
Zr681       O683   2.434       .  S
Zr681       O689   2.373       .  S
Zr681       O690   2.373       .  S
Zr681       O693   2.375       .  S
Zr681       O691   2.374       .  S
O682        H702   0.989       .  S
O682        H707   0.990       .  S
O683        H703   0.990       .  S
Zr684       O685   2.433       .  S
Zr684       O686   2.435       .  S
Zr684       O690   2.381       .  S
Zr684       O689   2.365       .  S
Zr684       O694   2.368       .  S
Zr684       O692   2.379       .  S
O685        H701   0.990       .  S
O686        H700   0.990       .  S
O686        H710   0.990       .  S
Zr687       O690   2.381       .  S
Zr687       O692   2.384       .  S
Zr687       O693   2.385       .  S
Zr688       O689   2.376       .  S
Zr688       O691   2.372       .  S
Zr688       O694   2.378       .  S
O689        H697   0.966       .  S
O692        H696   0.966       .  S
O693        H698   0.966       .  S
C711        C712   1.409       .  A
C711        C716   1.402       .  A
C711       C1180   1.500       .  S
C712        C713   1.418       .  A
C712        H717   1.077       .  S
C714        C715   1.400       .  A
C714        H718   1.074       .  S
C715       C1194   1.494       .  S
C716        H719   1.084       .  S
C720        C721   1.401       .  A
C720        C725   1.405       .  A
C720       C1149   1.498       .  S
C721        H726   1.084       .  S
C722        C723   1.395       .  A
C722       C1166   1.478       .  S
C723        H727   1.078       .  S
C724        C725   1.417       .  A
C725        H728   1.080       .  S
O729       Zr741   2.469       .  S
O729        C731   1.294       .  A
O730       Zr767   2.403       .  S
O730        C731   1.283       .  A
C731       C1110   1.501   1_655  S
O732       Zr744   2.427   1_455  S
O732        C734   1.283   1_455  A
O733       Zr768   2.451       .  S
O733        C734   1.292       .  A
C734       C1121   1.482   1_655  S
O735       Zr744   2.430   1_455  S
O735        C737   1.284   1_455  A
O736       Zr767   2.435       .  S
O736        C737   1.288       .  A
C737       C1135   1.478   1_655  S
O738       Zr741   2.447       .  S
O738        C740   1.289       .  A
O739       Zr768   2.442       .  S
O739        C740   1.290       .  A
C740       C1093   1.490   1_655  S
Zr741       O742   2.434   1_655  S
Zr741       O743   2.432       .  S
Zr741       O747   2.371       .  S
Zr741       O748   2.378       .  S
Zr741       O771   2.376       .  S
Zr741       O773   2.366       .  S
O742        H785   0.990       .  S
O743        H784   0.990       .  S
O743        H788   0.990       .  S
Zr744       O745   2.436   1_655  S
Zr744       O746   2.436       .  S
Zr744       O748   2.378       .  S
Zr744       O747   2.370       .  S
Zr744       O772   2.376       .  S
Zr744       O774   2.374       .  S
O745        H786   0.990       .  S
O745        H789   0.990       .  S
O746        H779   0.990       .  S
O747       Zr767   2.374       .  S
O748       Zr768   2.386       .  S
O748        H775   0.966   1_655  S
O749       Zr761   2.438       .  S
O749        C751   1.287       .  A
O750       Zr768   2.434       .  S
O750        C751   1.290       .  A
C751       C1065   1.486       .  S
O752       Zr764   2.450       .  S
O752        C754   1.289       .  A
O753       Zr767   2.415       .  S
O753        C754   1.285       .  A
C754       C1051   1.484       .  S
O755       Zr764   2.456       .  S
O755        C757   1.291       .  A
O756       Zr768   2.431       .  S
O756        C757   1.289       .  A
C757       C1037   1.503       .  S
O758       Zr761   2.447       .  S
O758        C760   1.288       .  A
O759       Zr767   2.423       .  S
O759        C760   1.286       .  A
C760       C1082   1.478       .  S
Zr761       O762   2.435       .  S
Zr761       O763   2.432       .  S
Zr761       O769   2.374       .  S
Zr761       O770   2.369       .  S
Zr761       O773   2.368       .  S
Zr761       O771   2.377       .  S
O762        H782   0.990       .  S
O762        H787   0.990       .  S
O763        H783   0.990       .  S
Zr764       O765   2.430       .  S
Zr764       O766   2.434       .  S
Zr764       O770   2.376       .  S
Zr764       O769   2.373       .  S
Zr764       O774   2.375       .  S
Zr764       O772   2.376       .  S
O765        H781   0.990       .  S
O766        H780   0.990       .  S
O766        H790   0.990       .  S
Zr767       O770   2.376       .  S
Zr767       O772   2.380       .  S
Zr767       O773   2.379       .  S
Zr768       O769   2.387       .  S
Zr768       O771   2.381       .  S
Zr768       O774   2.382       .  S
O769        H777   0.966       .  S
O772        H776   0.966       .  S
O773        H778   0.965       .  S
C791        C792   1.395       .  A
C791        C796   1.402       .  A
C791       C1096   1.493       .  S
C792        H797   1.084       .  S
C793        C794   1.403       .  A
C793       C1107   1.491       .  S
C794        H798   1.080       .  S
C795        C796   1.417       .  A
C796        H799   1.080       .  S
C800        C801   1.399       .  A
C800        C805   1.398       .  A
C800       C1068   1.483       .  S
C801        H806   1.079       .  S
C802        C803   1.416   1_554  A
C803        C804   1.400       .  A
C803        H807   1.078       .  S
C804       C1079   1.482       .  S
C805        H808   1.084       .  S
C809        C810   1.412       .  A
C809        C814   1.405       .  A
C809       C1040   1.513       .  S
C810        H815   1.080       .  S
C811        C812   1.413       .  A
C811        C909   1.511       .  S
C812        C813   1.398       .  A
C812        H816   1.077       .  S
C813       C1054   1.493       .  S
C814        H817   1.083       .  S
C818        C819   1.407       .  A
C818        C823   1.398       .  A
C818       C1124   1.487       .  S
C819        C820   1.416       .  A
C819        H824   1.080       .  S
C821        C822   1.398       .  A
C821        H825   1.076       .  S
C822       C1138   1.484       .  S
C823        H826   1.084       .  S
O827       Zr839   2.467       .  S
O827        C829   1.293       .  A
O828       Zr865   2.411       .  S
O828        C829   1.284       .  A
C829        C995   1.501       .  S
O830       Zr842   2.431       .  S
O830        C832   1.284       .  A
O831       Zr866   2.436       .  S
O831        C832   1.289       .  A
C832       C1012   1.477       .  S
O833       Zr842   2.439       .  S
O833        C835   1.286       .  A
O834       Zr865   2.427       .  S
O834        C835   1.287       .  A
C835       C1023   1.481       .  S
O836       Zr839   2.445       .  S
O836        C838   1.288       .  A
O837       Zr866   2.437       .  S
O837        C838   1.289       .  A
C838        C981   1.487       .  S
Zr839       O840   2.433       .  S
Zr839       O841   2.433       .  S
Zr839       O845   2.372       .  S
Zr839       O846   2.378       .  S
Zr839       O869   2.378       .  S
Zr839       O871   2.365       .  S
O840        H883   0.990       .  S
O841        H882   0.990       .  S
O841        H886   0.990       .  S
Zr842       O843   2.436       .  S
Zr842       O844   2.435       .  S
Zr842       O846   2.378       .  S
Zr842       O845   2.369       .  S
Zr842       O870   2.375       .  S
Zr842       O872   2.375       .  S
O843        H884   0.990       .  S
O843        H887   0.990       .  S
O844        H877   0.990       .  S
O845       Zr865   2.375       .  S
O846       Zr866   2.387       .  S
O846        H873   0.966       .  S
O847       Zr859   2.448       .  S
O847        C849   1.289       .  A
O848       Zr866   2.432       .  S
O848        C849   1.289       .  A
C849        C956   1.498       .  S
O850       Zr862   2.464       .  S
O850        C852   1.293       .  A
O851       Zr865   2.408       .  S
O851        C852   1.284       .  A
C852        C939   1.497       .  S
O853       Zr862   2.465       .  S
O853        C855   1.293       .  A
O854       Zr866   2.427       .  S
O854        C855   1.288       .  A
C855        C925   1.506       .  S
O856       Zr859   2.440       .  S
O856        C858   1.286       .  A
O857       Zr865   2.427       .  S
O857        C858   1.287       .  A
C858        C967   1.478       .  S
Zr859       O860   2.435       .  S
Zr859       O861   2.431       .  S
Zr859       O867   2.373       .  S
Zr859       O868   2.373       .  S
Zr859       O871   2.376       .  S
Zr859       O869   2.373       .  S
O860        H880   0.990       .  S
O860        H885   0.990       .  S
O861        H881   0.990       .  S
Zr862       O863   2.432       .  S
Zr862       O864   2.433       .  S
Zr862       O868   2.377       .  S
Zr862       O867   2.374       .  S
Zr862       O872   2.375       .  S
Zr862       O870   2.372       .  S
O863        H879   0.990       .  S
O864        H878   0.990       .  S
O864        H888   0.990       .  S
Zr865       O868   2.379       .  S
Zr865       O870   2.380       .  S
Zr865       O871   2.377       .  S
Zr866       O867   2.386       .  S
Zr866       O869   2.377       .  S
Zr866       O872   2.380       .  S
O867        H875   0.966       .  S
O870        H874   0.966       .  S
O871        H876   0.965       .  S
C889        C890   1.398       .  A
C889        C894   1.392       .  A
C889       C1009   1.482       .  S
C890        C891   1.419   1_556  A
C890        H895   1.075       .  S
C892        C893   1.406       .  A
C892        H896   1.077       .  S
C893       C1026   1.487       .  S
C894        H897   1.084       .  S
C898        C899   1.412       .  A
C898        C903   1.403   1_556  A
C898        C928   1.511       .  S
C899        C900   1.420   1_556  A
C899        H904   1.081       .  S
C901        C902   1.395       .  A
C901        H905   1.080       .  S
C902        C942   1.492       .  S
C903        H906   1.083       .  S
C907        C908   1.404       .  A
C907        C912   1.394   1_556  A
C907        C984   1.495       .  S
C908        C909   1.419       .  A
C908        H913   1.078       .  S
C910        C911   1.404       .  A
C910        H914   1.079       .  S
C911        C998   1.494       .  S
C912        H915   1.084       .  S
C916        C917   1.405       .  A
C916        C921   1.402   1_556  A
C916        C953   1.496       .  S
C917        C918   1.414   1_556  A
C917        H922   1.080       .  S
C919        C920   1.397       .  A
C919        H923   1.079       .  S
C920        C970   1.484       .  S
C921        H924   1.084       .  S
C925        C926   1.418       .  A
C925        C930   1.419       .  A
C926        C927   1.409       .  A
C926        C931   1.449       .  S
C927        C928   1.416       .  A
C927        C934   1.453       .  S
C928        C929   1.420       .  A
C929        C930   1.420       .  A
C929        C932   1.451       .  S
C930        C933   1.451       .  S
C931        N938   1.157       .  T
C932        N937   1.158       .  T
C933        N935   1.157       .  T
C934        N936   1.157       .  T
C939        C940   1.419       .  A
C939        C944   1.421       .  A
C940        C941   1.415       .  A
C940        C945   1.450       .  S
C941        C942   1.413       .  A
C941        C948   1.451       .  S
C942        C943   1.407       .  A
C943        C944   1.406       .  A
C943        C946   1.451       .  S
C944        C947   1.448       .  S
C945        N952   1.157       .  T
C946        N951   1.156       .  T
C947        N949   1.156       .  T
C948        N950   1.157       .  T
C953        C954   1.413       .  A
C953        C958   1.413       .  A
C954        C955   1.414       .  A
C954        C959   1.452       .  S
C955        C956   1.420       .  A
C955        C962   1.450       .  S
C956        C957   1.416       .  A
C957        C958   1.409       .  A
C957        C960   1.449       .  S
C958        C961   1.450       .  S
C959        N966   1.157       .  T
C960        N965   1.156       .  T
C962        N964   1.157       .  T
C967        C968   1.409       .  A
C967        C972   1.412       .  A
C968        C969   1.409       .  A
C968        C973   1.451       .  S
C969        C970   1.415       .  A
C969        C976   1.452       .  S
C970        C971   1.409       .  A
C971        C972   1.411       .  A
C971        C974   1.450       .  S
C972        C975   1.450       .  S
C973        N980   1.157       .  T
C974        N979   1.157       .  T
C975        N977   1.157       .  T
C976        N978   1.157       .  T
C981        C982   1.410       .  A
C981        C986   1.412       .  A
C982        C983   1.411       .  A
C982        C987   1.450       .  S
C983        C984   1.416       .  A
C983        C990   1.449       .  S
C984        C985   1.413       .  A
C985        C986   1.413       .  A
C985        C988   1.451       .  S
C986        C989   1.446       .  S
C987        N994   1.157       .  T
C988        N993   1.157       .  T
C989        N991   1.155       .  T
C990        N992   1.156       .  T
C995        C996   1.420       .  A
C995       C1000   1.422       .  A
C996        C997   1.415       .  A
C996       C1001   1.449       .  S
C997        C998   1.413       .  A
C997       C1004   1.452       .  S
C998        C999   1.411       .  A
C999       C1000   1.407       .  A
C999       C1002   1.455       .  S
C1000      C1003   1.449       .  S
C1001      N1008   1.157       .  T
C1003      N1005   1.156       .  T
C1004      N1006   1.157       .  T
C1009      C1010   1.412       .  A
C1009      C1014   1.411       .  A
C1010      C1011   1.409       .  A
C1010      C1015   1.451       .  S
C1011      C1012   1.409       .  A
C1011      C1018   1.448       .  S
C1012      C1013   1.410       .  A
C1013      C1014   1.410       .  A
C1013      C1016   1.451       .  S
C1014      C1017   1.449       .  S
C1015      N1022   1.157       .  T
C1016      N1021   1.157       .  T
C1017      N1019   1.157       .  T
C1018      N1020   1.156       .  T
C1023      C1024   1.410       .  A
C1023      C1028   1.413       .  A
C1024      C1025   1.409       .  A
C1024      C1029   1.450       .  S
C1025      C1026   1.412       .  A
C1025      C1032   1.451       .  S
C1026      C1027   1.413       .  A
C1027      C1028   1.413       .  A
C1027      C1030   1.450       .  S
C1028      C1031   1.451       .  S
C1029      N1036   1.157       .  T
C1030      N1035   1.157       .  T
C1031      N1033   1.157       .  T
C1032      N1034   1.157       .  T
C1037      C1038   1.413       .  A
C1037      C1042   1.420       .  A
C1038      C1039   1.406       .  A
C1038      C1043   1.450       .  S
C1039      C1040   1.416       .  A
C1039      C1046   1.447       .  S
C1040      C1041   1.421       .  A
C1041      C1042   1.421       .  A
C1041      C1044   1.451       .  S
C1042      C1045   1.450       .  S
C1043      N1050   1.157       .  T
C1044      N1049   1.158       .  T
C1045      N1047   1.157       .  T
C1046      N1048   1.156       .  T
C1051      C1052   1.414       .  A
C1051      C1056   1.410       .  A
C1052      C1053   1.415       .  A
C1052      C1057   1.449       .  S
C1053      C1054   1.415       .  A
C1053      C1060   1.447       .  S
C1054      C1055   1.408       .  A
C1055      C1056   1.401       .  A
C1055      C1058   1.448       .  S
C1056      C1059   1.445       .  S
C1057      N1064   1.157       .  T
C1058      N1063   1.157       .  T
C1059      N1061   1.155       .  T
C1060      N1062   1.156       .  T
C1065      C1066   1.415       .  A
C1065      C1070   1.411       .  A
C1066      C1067   1.412       .  A
C1066      C1071   1.450       .  S
C1067      C1068   1.412       .  A
C1067      C1074   1.451       .  S
C1068      C1069   1.409       .  A
C1069      C1070   1.405       .  A
C1069      C1072   1.453       .  S
C1070      C1073   1.444       .  S
C1071      N1078   1.157       .  T
C1072      N1077   1.157       .  T
C1073      N1075   1.154       .  T
C1074      N1076   1.157       .  T
C1079      C1080   1.409       .  A
C1079      C1084   1.413       .  A
C1080      C1081   1.411       .  A
C1080      C1085   1.450       .  S
C1081      C1082   1.412       .  A
C1081      C1088   1.449       .  S
C1082      C1083   1.408       .  A
C1083      C1084   1.408       .  A
C1083      C1086   1.447       .  S
C1084      C1087   1.452       .  S
C1085      N1092   1.157       .  T
C1086      N1091   1.156       .  T
C1087      N1089   1.157       .  T
C1088      N1090   1.157       .  T
C1093      C1094   1.411   1_455  A
C1093      C1098   1.410       .  A
C1094      C1095   1.412       .  A
C1094      C1099   1.443       .  S
C1095      C1096   1.411   1_655  A
C1095      C1102   1.451       .  S
C1096      C1097   1.416       .  A
C1097      C1098   1.412       .  A
C1097      C1100   1.451       .  S
C1098      C1101   1.447       .  S
C1099      N1106   1.154       .  T
C1100      N1105   1.157       .  T
C1101      N1103   1.156       .  T
C1102      N1104   1.157       .  T
C1107      C1108   1.410       .  A
C1107      C1112   1.412       .  A
C1108      C1109   1.406       .  A
C1108      C1113   1.455       .  S
C1109      C1110   1.424       .  A
C1109      C1116   1.452   1_455  S
C1110      C1111   1.420       .  A
C1111      C1112   1.414       .  A
C1111      C1114   1.449       .  S
C1112      C1115   1.452       .  S
C1113      N1120   1.157       .  T
C1114      N1119   1.157   1_455  T
C1115      N1117   1.157       .  T
C1116      N1118   1.157       .  T
C1121      C1122   1.410       .  A
C1121      C1126   1.409       .  A
C1122      C1123   1.409       .  A
C1122      C1127   1.447       .  S
C1123      C1124   1.412       .  A
C1123      C1130   1.451       .  S
C1124      C1125   1.414       .  A
C1125      C1126   1.412       .  A
C1125      C1128   1.450       .  S
C1126      C1129   1.450   1_455  S
C1127      N1134   1.156       .  T
C1128      N1133   1.157   1_455  T
C1129      N1131   1.157       .  T
C1130      N1132   1.157       .  T
C1135      C1136   1.409       .  A
C1135      C1140   1.411       .  A
C1136      C1137   1.411       .  A
C1136      C1141   1.451   1_455  S
C1137      C1138   1.413       .  A
C1137      C1144   1.450       .  S
C1138      C1139   1.410       .  A
C1139      C1140   1.410       .  A
C1139      C1142   1.450       .  S
C1140      C1143   1.451       .  S
C1141      N1148   1.157       .  T
C1142      N1147   1.157       .  T
C1143      N1145   1.157       .  T
C1144      N1146   1.157       .  T
C1149      C1150   1.417       .  A
C1149      C1154   1.411       .  A
C1150      C1151   1.416       .  A
C1150      C1155   1.452       .  S
C1151      C1152   1.417       .  A
C1151      C1158   1.451       .  S
C1152      C1153   1.418       .  A
C1153      C1154   1.407       .  A
C1153      C1156   1.447       .  S
C1154      C1157   1.453       .  S
C1155      N1162   1.157       .  T
C1156      N1161   1.156       .  T
C1157      N1159   1.157       .  T
C1158      N1160   1.157       .  T
C1163      C1164   1.411       .  A
C1163      C1168   1.409       .  A
C1164      C1165   1.410       .  A
C1164      C1169   1.452       .  S
C1165      C1166   1.412       .  A
C1165      C1172   1.450       .  S
C1166      C1167   1.407       .  A
C1167      C1168   1.407       .  A
C1167      C1170   1.451       .  S
C1168      C1171   1.442       .  S
C1169      N1176   1.157       .  T
C1170      N1175   1.157       .  T
C1171      N1173   1.154       .  T
C1172      N1174   1.157       .  T
C1177      C1178   1.409       .  A
C1177      C1182   1.412       .  A
C1178      C1179   1.410       .  A
C1178      C1183   1.452       .  S
C1179      C1180   1.417       .  A
C1179      C1186   1.448       .  S
C1180      C1181   1.419       .  A
C1181      C1182   1.413       .  A
C1181      C1184   1.451       .  S
C1182      C1185   1.451       .  S
C1183      N1190   1.157       .  T
C1184      N1189   1.157       .  T
C1185      N1187   1.157       .  T
C1186      N1188   1.156       .  T
C1191      C1192   1.409       .  A
C1191      C1196   1.410       .  A
C1192      C1193   1.408       .  A
C1192      C1197   1.449       .  S
C1193      C1194   1.413       .  A
C1193      C1200   1.448       .  S
C1194      C1195   1.418       .  A
C1195      C1196   1.410       .  A
C1195      C1198   1.451       .  S
C1196      C1199   1.449       .  S
C1197      N1204   1.156       .  T
C1198      N1203   1.157       .  T
C1199      N1201   1.157       .  T
C1200      N1202   1.156       .  T
C1205      C1206   1.421       .  A
C1205      C1210   1.422       .  A
C1206      C1207   1.422       .  A
C1206      C1211   1.451       .  S
C1207      C1208   1.419       .  A
C1207      C1214   1.450       .  S
C1208      C1209   1.419       .  A
C1209      C1210   1.408       .  A
C1209      C1212   1.455       .  S
C1210      C1213   1.451       .  S
C1211      N1218   1.158       .  T
C1212      N1217   1.156       .  T
C1214      N1216   1.157       .  T
C1219      C1220   1.415       .  A
C1219      C1224   1.422       .  A
C1220      C1221   1.402       .  A
C1220      C1225   1.444       .  S
C1221      C1222   1.404       .  A
C1221      C1228   1.452       .  S
C1222      C1223   1.407       .  A
C1223      C1224   1.416       .  A
C1223      C1226   1.449       .  S
C1224      C1227   1.448       .  S
C1225      N1232   1.155       .  T
C1226      N1231   1.157       .  T
C1227      N1229   1.157       .  T
C1233      C1234   1.410       .  A
C1233      C1238   1.413       .  A
C1234      C1235   1.408       .  A
C1234      C1239   1.450       .  S
C1235      C1236   1.411       .  A
C1235      C1242   1.451       .  S
C1236      C1237   1.409       .  A
C1237      C1238   1.409       .  A
C1237      C1240   1.451       .  S
C1238      C1241   1.450       .  S
C1239      N1246   1.157       .  T
C1240      N1245   1.157   1_565  T
C1241      N1243   1.157       .  T
C1242      N1244   1.157       .  T
C1247      C1248   1.413       .  A
C1247      C1252   1.416       .  A
C1248      C1249   1.409       .  A
C1248      C1253   1.446   1_565  S
C1249      C1250   1.414       .  A
C1249      C1256   1.451       .  S
C1250      C1251   1.418       .  A
C1251      C1252   1.414       .  A
C1251      C1254   1.452       .  S
C1252      C1255   1.451       .  S
C1253      N1260   1.155       .  T
C1254      N1259   1.157       .  T
C1255      N1257   1.157       .  T
