geometry optimzed in LAMMPS
_audit_creation_date              2020-12-01 
_audit_creation_method            'lammps2cif' 
_symmetry_space_group_name_H-M    'P1' 
_symmetry_Int_Tables_number       1 
_symmetry_cell_setting            triclinic 
loop_ 
_symmetry_equiv_pos_as_xyz 
  x,y,z 
_cell_length_a                    38.67619108 
_cell_length_b                    38.38706472532281 
_cell_length_c                    49.113384376853205 
_cell_angle_alpha                 91.59910073202632 
_cell_angle_beta                  89.08679956560303 
_cell_angle_gamma                 119.33610996222373 
loop_ 
_atom_site_label 
_atom_site_type_symbol 
_atom_site_fract_x 
_atom_site_fract_y 
_atom_site_fract_z 
_atom_site_charge 
O1          O  0.10060164  0.32854583  0.28368633    -0.81100
C2          C  0.23661494  0.37041566  0.21649083     0.98300
O3          O  0.22935296  0.39300951  0.23185527    -0.70200
O4          O  0.16165974  0.39116023  0.22249210    -0.73800
Al5        Al  0.18557152  0.38527428  0.25448061     1.49000
C6          C  0.12521198  0.37350963  0.21669894     0.93500
O7          O  0.10489511  0.27732854  0.21702122    -0.80000
O8          O  0.16176765  0.27535714  0.28084751    -0.73600
Al9        Al  0.10669468  0.30497916  0.25047733     1.90100
O10         O  0.15193425  0.26381671  0.22582535    -0.72600
O11         O  0.22822994  0.34047328  0.27336923    -0.72500
O12         O  0.21660536  0.33295763  0.21851617    -0.78100
O13         O  0.21299045  0.38586397  0.28691447    -0.76300
O14         O  0.15972072  0.33197396  0.25152296    -1.12500
O15         O  0.14749017  0.38975166  0.27766616    -0.71700
C16         C  0.11650575  0.36527845  0.28994716     0.99100
C17         C  0.12241614  0.25746864  0.21184927     0.95400
Al18       Al  0.18708816  0.30553548  0.24975512     1.55600
O19         O  0.10105639  0.34249797  0.22905028    -0.76300
C20         C  0.23355795  0.36871320  0.28936210     0.99600
C21         C  0.12505055  0.25535586  0.28506394     0.94500
O22         O  0.10118603  0.26184451  0.27175315    -0.81600
C23         C  0.99190948  0.99187954  0.10733403    -0.01800
C24         C  0.48347824  0.00096543  0.39438884    -0.01800
O25         O  0.39552790  0.17390635  0.78269882    -0.81100
C26         C  0.26431130  0.13255827  0.71378878     0.98300
O27         O  0.27104135  0.10816022  0.72633768    -0.70200
O28         O  0.33823606  0.10835048  0.72102556    -0.73800
Al29       Al  0.31131317  0.11474784  0.75169438     1.49000
C30         C  0.37482245  0.12545862  0.71644174     0.93500
O31         O  0.38965251  0.22014186  0.71676339    -0.80000
O32         O  0.33531794  0.22577577  0.78376083    -0.73600
Al33       Al  0.38976851  0.19584362  0.74999015     1.90100
O34         O  0.34478338  0.23664059  0.72838432    -0.72600
O35         O  0.26737735  0.15984025  0.77460538    -0.72500
O36         O  0.28113652  0.16900022  0.72040031    -0.78100
O37         O  0.27904457  0.11079679  0.78232753    -0.76300
O38         O  0.33675183  0.16831760  0.75135607    -1.12500
O39         O  0.34771608  0.11195093  0.77682450    -0.71700
C40         C  0.37930287  0.13746724  0.78872622     0.99100
C41         C  0.37207538  0.23985705  0.71256902     0.95400
Al42       Al  0.30963835  0.19523013  0.75185779     1.55600
O43         O  0.39762905  0.15806369  0.72834087    -0.76300
C44         C  0.25895971  0.12810199  0.78652763     0.99600
C45         C  0.37228683  0.24789750  0.78604243     0.94500
O46         O  0.39575337  0.24111247  0.77160718    -0.81600
C47         C  0.00411110  0.50529005  0.89457349    -0.01800
C48         C  0.50926159  0.99576352  0.60526136    -0.01800
C49         C  0.43042364  0.39805767  0.87556422    -0.11100
C50         C  0.45083734  0.39024911  0.85480015     0.11400
C51         C  0.48840591  0.42090572  0.84699030    -0.03000
C52         C  0.50487234  0.45772493  0.86116564    -0.05700
C53         C  0.48592075  0.46696895  0.88324237    -0.16500
C54         C  0.44532883  0.43589832  0.88897095     0.02500
C55         C  0.42885176  0.35203120  0.83891224     0.12400
C56         C  0.51229929  0.41764922  0.82307213     0.63000
H57         H  0.03107368  0.47629480  0.85131231     0.12400
C58         C  0.41496990  0.44050906  0.90715917     0.55200
H59         H  0.40105740  0.37390341  0.88011273     0.08200
C60         C  0.43313279  0.31814310  0.84364957    -0.05600
C61         C  0.41331687  0.28413954  0.82634669    -0.06300
C62         C  0.38887127  0.28294565  0.80507790    -0.15900
C63         C  0.38357314  0.31648320  0.80098870    -0.01500
C64         C  0.40364210  0.35047048  0.81815067    -0.09000
C65         C  0.45895652  0.31839246  0.86664388     0.65200
H66         H  0.41713177  0.25831557  0.82906057     0.10700
C67         C  0.35867291  0.31734275  0.77769790     0.63600
H68         H  0.40074191  0.37675218  0.81506046     0.08000
F69         F  0.37782707  0.40676870  0.90622224    -0.19400
F70         F  0.40934785  0.47112966  0.89856860    -0.15600
F71         F  0.42561219  0.44617472  0.93410898    -0.19100
F72         F  0.51543627  0.44407759  0.80334439    -0.22500
F73         F  0.49593945  0.37991935  0.81117101    -0.24000
F74         F  0.04753748  0.44551927  0.81670345    -0.18000
F75         F  0.35792426  0.35302444  0.77728470    -0.20500
F76         F  0.32001900  0.28678340  0.78019905    -0.21600
F77         F  0.37431889  0.31288549  0.75319764    -0.18800
F78         F  0.49778818  0.34776269  0.86257460    -0.18900
F79         F  0.45825320  0.28211345  0.86834091    -0.22700
F80         F  0.44554772  0.32602069  0.89114881    -0.24300
C81         C  0.11412477  0.04138560  0.87582057    -0.11100
C82         C  0.11994713  0.06827668  0.85546081     0.11400
C83         C  0.09087846  0.07925462  0.85094747    -0.03000
C84         C  0.05736101  0.06387901  0.86795085    -0.05700
C85         C  0.04691749  0.03130169  0.88565949    -0.16500
C86         C  0.07862306  0.02234881  0.89118169     0.02500
C87         C  0.15666675  0.08372879  0.83876091     0.12400
C88         C  0.09361105  0.10459748  0.82682682     0.63000
H89         H  0.03862970  0.07704139  0.86616248     0.12400
C90         C  0.07923199  0.49185457  0.90809202     0.55200
H91         H  0.13794584  0.03482123  0.87899583     0.08200
C92         C  0.19196718  0.11905351  0.84607619    -0.05600
C93         C  0.22510650  0.13243668  0.82861730    -0.06300
C94         C  0.22421811  0.11073781  0.80493299    -0.15900
C95         C  0.18922331  0.07465962  0.79814067    -0.01500
C96         C  0.15595254  0.06173002  0.81533627    -0.09000
C97         C  0.19475408  0.14190390  0.87245346     0.65200
H98         H  0.25213459  0.15991855  0.83336062     0.10700
C99         C  0.18633062  0.05091111  0.77221203     0.63600
H100        H  0.12870309  0.03455039  0.81044220     0.08000
F101        F  0.07621216  0.00862929  0.93846636    -0.19400
F102        F  0.11200570  0.48633768  0.90600748    -0.15600
F103        F  0.04662739  0.45455690  0.90461968    -0.19100
F104        F  0.09176293  0.08386940  0.80290831    -0.22500
F105        F  0.12880705  0.14034687  0.82725357    -0.24000
F106        F  0.06284806  0.11327393  0.82664487    -0.18000
F107        F  0.14959458  0.01693923  0.76953155    -0.20500
F108        F  0.21475494  0.03900808  0.77222164    -0.21600
F109        F  0.19208034  0.07434154  0.74993990    -0.18800
F110        F  0.23170206  0.17543380  0.87559793    -0.18900
F111        F  0.18827158  0.11747463  0.89429680    -0.22700
F112        F  0.16668122  0.15426355  0.87298909    -0.24300
C113        C  0.45515290  0.12270587  0.82895396    -0.11100
C114        C  0.43026901  0.08771333  0.84282937     0.11400
C115        C  0.38862949  0.07169889  0.84140407    -0.03000
C116        C  0.37328605  0.08995713  0.82445580    -0.05700
C117        C  0.39812830  0.12365363  0.80905958    -0.16500
C118        C  0.44003805  0.14060545  0.81154435     0.02500
C119        C  0.44872792  0.06680665  0.85681016     0.12400
C120        C  0.36057801  0.03512429  0.85740745     0.63000
H121        H  0.34149647  0.07745934  0.82266467     0.12400
C122        C  0.46906003  0.17579068  0.79475256     0.55200
H123        H  0.48686958  0.13480485  0.83094122     0.08200
C124        C  0.46155197  0.04316988  0.84216544    -0.05600
C125        C  0.47814464  0.02382305  0.85652165    -0.06300
C126        C  0.48338192  0.02681877  0.88540522    -0.15900
C127        C  0.46515697  0.04716628  0.90009308    -0.01500
C128        C  0.45203282  0.06951588  0.88513864    -0.09000
C129        C  0.45894106  0.03933212  0.81121510     0.65200
H130        H  0.98628338  0.00702230  0.84403720     0.10700
C131        C  0.45355759  0.04457003  0.93020262     0.63600
H132        H  0.44150393  0.08759327  0.89591475     0.08000
F133        F  0.46041265  0.16712393  0.76735669    -0.19400
F134        F  0.50789372  0.18437637  0.79842672    -0.15600
F135        F  0.46675122  0.20956973  0.80228991    -0.19100
F136        F  0.36704855  0.04358637  0.88499011    -0.22500
F137        F  0.36685024  0.00347186  0.85054556    -0.24000
F138        F  0.32122772  0.02337227  0.85227889    -0.18000
F139        F  0.47920751  0.07956770  0.94393678    -0.20500
F140        F  0.45328972  0.51819093  0.94484961    -0.21600
F141        F  0.41759201  0.54609889  0.93532863    -0.18800
F142        F  0.97905529  0.02110250  0.79969520    -0.18900
F143        F  0.98750511  0.08294614  0.80178124    -0.22700
F144        F  0.42021426  0.02529584  0.80303223    -0.24300
C145        C  0.37956235  0.31610726  0.66089522    -0.11100
C146        C  0.42020202  0.33488953  0.65502349     0.11400
C147        C  0.44347771  0.31901911  0.66529018    -0.03000
C148        C  0.42571791  0.28622572  0.68251818    -0.05700
C149        C  0.38580130  0.26935925  0.69035484    -0.16500
C150        C  0.36159381  0.28314126  0.67819664     0.02500
C151        C  0.43873590  0.37452424  0.64194361     0.12400
C152        C  0.48773802  0.33876912  0.66026088     0.63000
H153        H  0.44389924  0.27541674  0.69160901     0.12400
C154        C  0.31715140  0.26359299  0.68310933     0.55200
H155        H  0.36237878  0.32886209  0.65290743     0.08200
C156        C  0.44008172  0.37945996  0.61361718    -0.05600
C157        C  0.46155343  0.41842871  0.60335239    -0.06300
C158        C  0.48195911  0.45310111  0.62035397    -0.15900
C159        C  0.47438784  0.44732847  0.64947179    -0.01500
C160        C  0.45421907  0.40804127  0.65917454    -0.09000
C161        C  0.41852163  0.34361403  0.59444449     0.65200
H162        H  0.46227139  0.42139396  0.58164287     0.10700
C163        C  0.48414123  0.48032814  0.67123536     0.63600
H164        H  0.44966023  0.40262152  0.68079753     0.08000
F165        F  0.29903200  0.27673116  0.66510994    -0.19400
F166        F  0.30956422  0.27257110  0.70921413    -0.15600
F167        F  0.30015367  0.22265389  0.67943564    -0.19100
F168        F  0.50607591  0.37429358  0.67494984    -0.22500
F169        F  0.49594346  0.34594828  0.63286511    -0.24000
F170        F  0.50352981  0.31527033  0.66844846    -0.18000
F171        F  0.45872825  0.49564419  0.66869151    -0.20500
F172        F  0.02712296  0.00925708  0.66805034    -0.21600
F173        F  0.97952556  0.46218145  0.69373862    -0.18800
F174        F  0.42528834  0.35427074  0.56738812    -0.18900
F175        F  0.37816566  0.32586781  0.59926881    -0.22700
F176        F  0.43096343  0.31601971  0.59864608    -0.24300
C177        C  0.20480276  0.08714715  0.64905230    -0.11100
C178        C  0.17032572  0.08924735  0.65550623     0.11400
C179        C  0.16802435  0.10746005  0.68043536    -0.03000
C180        C  0.20033758  0.12264633  0.69829796    -0.05700
C181        C  0.23363069  0.11832386  0.69262693    -0.16500
C182        C  0.23683283  0.10159449  0.66736127     0.02500
C183        C  0.13418660  0.06446511  0.63917909     0.12400
C184        C  0.13077231  0.10891683  0.68880992     0.63000
H185        H  0.19906502  0.13630142  0.71762647     0.12400
C186        C  0.27384756  0.09924137  0.65991479     0.55200
H187        H  0.20554587  0.07225004  0.63017496     0.08200
C188        C  0.12356053  0.07746411  0.61585978    -0.05600
C189        C  0.08548194  0.05293872  0.60471790    -0.06300
C190        C  0.05851965  0.01450090  0.61504050    -0.15900
C191        C  0.07597332  0.99854097  0.63349743    -0.01500
C192        C  0.11082580  0.02533724  0.64721072    -0.09000
C193        C  0.15222744  0.11676476  0.60298009     0.65200
H194        H  0.07565092  0.06512908  0.58896953     0.10700
C195        C  0.05802189  0.45240754  0.63925557     0.63600
H196        H  0.12161776  0.01480305  0.66361701     0.08000
F197        F  0.27234753  0.08519293  0.63344280    -0.19400
F198        F  0.27793564  0.07371044  0.67721418    -0.15600
F199        F  0.30681798  0.13685223  0.66223814    -0.19100
F200        F  0.09979036  0.07058525  0.69225861    -0.22500
F201        F  0.12082789  0.12720575  0.66895706    -0.24000
F202        F  0.13582180  0.13011595  0.71307184    -0.18000
F203        F  0.08962283  0.44496320  0.63723571    -0.20500
F204        F  0.03001802  0.42513072  0.62196045    -0.21600
F205        F  0.04422080  0.44549985  0.66578431    -0.18800
F206        F  0.13674843  0.12311719  0.57960145    -0.18900
F207        F  0.18682094  0.11641019  0.59593096    -0.22700
F208        F  0.16114951  0.14817448  0.62111282    -0.24300
C209        C  0.41181520  0.05707651  0.68660009    -0.11100
C210        C  0.43069258  0.07711652  0.66276077     0.11400
C211        C  0.42822357  0.11119396  0.65536904    -0.03000
C212        C  0.40969400  0.12626777  0.67340516    -0.05700
C213        C  0.39161951  0.10676987  0.69758422    -0.16500
C214        C  0.39155292  0.07091955  0.70397613     0.02500
C215        C  0.45256197  0.06128987  0.64590311     0.12400
C216        C  0.44460205  0.13084409  0.62831954     0.63000
H217        H  0.40880441  0.15320381  0.66864932     0.12400
C218        C  0.37082542  0.04783922  0.72928683     0.55200
H219        H  0.41327951  0.03049285  0.69150233     0.08200
C220        C  0.49334953  0.07463983  0.64902296    -0.05600
C221        C  0.51057079  0.05514742  0.63410924    -0.06300
C222        C  0.48854533  0.02020769  0.61741066    -0.15900
C223        C  0.44676605  0.00794359  0.61393374    -0.01500
C224        C  0.43048038  0.02905767  0.62825635    -0.09000
C225        C  0.51992263  0.10738291  0.66922722     0.65200
H226        H  0.04551929  0.06714295  0.63716822     0.10700
C227        C  0.41616136  0.97027496  0.59866909     0.63600
H228        H  0.39900045  0.01896707  0.62708761     0.08000
F229        F  0.38655204  0.07201327  0.75220939    -0.19400
F230        F  0.37517086  0.01439182  0.73202352    -0.15600
F231        F  0.33069465  0.03517033  0.72785915    -0.19100
F232        F  0.42561392  0.10339495  0.60737046    -0.22500
F233        F  0.48483150  0.14398272  0.62681071    -0.24000
F234        F  0.43884152  0.16327174  0.62473948    -0.18000
F235        F  0.40215576  0.44016865  0.61333039    -0.20500
F236        F  0.43385455  0.46293526  0.57339555    -0.21600
F237        F  0.38320582  0.97334931  0.59166513    -0.18800
F238        F  0.05778401  0.14118233  0.64458743    -0.18900
F239        F  0.53216165  0.09077477  0.68894465    -0.22700
F240        F  0.50175714  0.12652379  0.68222758    -0.24300
C241        C  0.46525670  0.48115177  0.47704966    -0.11100
C242        C  0.00590829  0.00007028  0.48437666     0.11400
C243        C  0.03798007  0.01827786  0.46604871    -0.03000
C244        C  0.02993083  0.01892108  0.43826044    -0.05700
C245        C  0.48577384  0.00224366  0.42685006    -0.16500
C246        C  0.45568189  0.48602002  0.45036979     0.02500
C247        C  0.01108512  0.00117004  0.51453175     0.12400
C248        C  0.08063041  0.03667424  0.47566542     0.63000
H249        H  0.05463170  0.03105594  0.42415540     0.12400
C250        C  0.41276474  0.47839259  0.44870556     0.55200
H251        H  0.44189394  0.46733028  0.49215003     0.08200
C252        C  0.49980554  0.02827142  0.53155779    -0.05600
C253        C  0.50184303  0.02517783  0.55992551    -0.06300
C254        C  0.51076385  0.99732972  0.57246478    -0.15900
C255        C  0.02836444  0.47655207  0.55361332    -0.01500
C256        C  0.02431650  0.47858394  0.52518312    -0.09000
C257        C  0.48963813  0.05867008  0.52024431     0.65200
H258        H  0.49646872  0.04558616  0.57229268     0.10700
C259        C  0.04892203  0.45299036  0.56171004     0.63600
H260        H  0.02792927  0.45822165  0.51125700     0.08000
F261        F  0.40581904  0.49792836  0.42838179    -0.19400
F262        F  0.40301892  0.49216470  0.47239965    -0.15600
F263        F  0.38678247  0.43779082  0.44649930    -0.19100
F264        F  0.08738404  0.00739026  0.48592083    -0.22500
F265        F  0.08789011  0.06534219  0.49578248    -0.24000
F266        F  0.10745574  0.05477926  0.45471350    -0.18000
F267        F  0.52085076  0.41443618  0.57660785    -0.20500
F268        F  0.07940869  0.47472184  0.57961182    -0.21600
F269        F  0.06641427  0.44472029  0.53944873    -0.18800
F270        F  0.48939834  0.08463736  0.54028077    -0.18900
F271        F  0.45246251  0.03920325  0.50852773    -0.22700
F272        F  0.01626775  0.07725513  0.49963491    -0.24300
C273        C  0.52883974  0.04305007  0.97361850    -0.11100
C274        C  0.00305140  0.00061929  0.98625657     0.11400
C275        C  0.99679045  0.46735777  0.96849609    -0.03000
C276        C  0.99716574  0.46999535  0.93999491    -0.05700
C277        C  0.00930943  0.50634281  0.92633714    -0.16500
C278        C  0.53338909  0.04608026  0.94485880     0.02500
C279        C  0.00024330  0.99895796  0.01666438     0.12400
C280        C  0.98349475  0.42703953  0.98126470     0.63000
H281        H  0.98712643  0.44257179  0.92845827     0.12400
C282        C  0.56085078  0.08780172  0.93394027     0.55200
H283        H  0.53929283  0.06964149  0.98643162     0.08200
C284        C  0.03359741  0.01209102  0.03353175    -0.05600
C285        C  0.02785338  0.00767886  0.06185058    -0.06300
C286        C  0.99240550  0.49230317  0.07305051    -0.15900
C287        C  0.46314085  0.48171862  0.05523129    -0.01500
C288        C  0.47217912  0.49209288  0.02757157    -0.09000
C289        C  0.07539283  0.03157620  0.02180169     0.65200
H290        H  0.05402978  0.01981125  0.07441746     0.10700
C291        C  0.41816821  0.45549750  0.05955785     0.63600
H292        H  0.44829646  0.48499278  0.01334470     0.08000
F293        F  0.59574157  0.08995921  0.92469495    -0.19400
F294        F  0.57269439  0.62046135  0.95361661    -0.15600
F295        F  0.54365362  0.09737557  0.91326889    -0.19100
F296        F  0.94667095  0.41340551  0.99324182    -0.22500
F297        F  0.00704796  0.92909698  0.00102259    -0.24000
F298        F  0.98069637  0.39853162  0.96217756    -0.18000
F299        F  0.40008945  0.47879801  0.05844577    -0.20500
F300        F  0.40637054  0.43383998  0.08278950    -0.21600
F301        F  0.40265637  0.42711927  0.03861838    -0.18800
F302        F  0.10347032  0.03845411  0.04142994    -0.18900
F303        F  0.08469504  0.06795968  0.01092224    -0.22700
F304        F  0.07812600  0.00719568  0.00161674    -0.24300
C305        C  0.09445335  0.43051038  0.34043104    -0.11100
C306        C  0.05349445  0.40652548  0.34416376     0.11400
C307        C  0.03379074  0.36804942  0.33154764    -0.03000
C308        C  0.05599058  0.35523200  0.31523025    -0.05700
C309        C  0.09692545  0.37981454  0.31047010    -0.16500
C310        C  0.11678332  0.41792871  0.32406852     0.02500
C311        C  0.03175485  0.42522796  0.35804551     0.12400
C312        C  0.98923121  0.34118469  0.33434062     0.63000
H313        H  0.04084959  0.32635011  0.30489735     0.12400
C314        C  0.16126909  0.44554191  0.32181292     0.55200
H315        H  0.10865216  0.46012508  0.34981971     0.09400
C316        C  0.02967423  0.42915588  0.38652409    -0.05600
C317        C  0.01101022  0.45022105  0.39744540    -0.06300
C318        C  0.99762107  0.47148192  0.38117119    -0.15900
C319        C  0.99592382  0.46256231  0.35199158    -0.01500
C320        C  0.01452441  0.44127466  0.34153842    -0.09000
C321        C  0.04774564  0.41165550  0.40534614     0.65200
H322        H  0.00693530  0.44949575  0.41914719     0.10700
C323        C  0.47307218  0.47070139  0.33319660     0.63600
H324        H  0.01577652  0.43642870  0.31981011     0.08000
F325        F  0.17453083  0.47772240  0.33999231    -0.19400
F326        F  0.17105881  0.46063427  0.29588518    -0.15600
F327        F  0.18095107  0.42477415  0.32758621    -0.19100
F328        F  0.47074887  0.35705487  0.32699233    -0.22500
F329        F  0.97846142  0.33644640  0.36149425    -0.24000
F330        F  0.97678715  0.30357592  0.32283135    -0.18000
F331        F  0.98243660  0.46625749  0.30437406    -0.20500
F332        F  0.48170826  0.50968743  0.33502186    -0.21600
F333        F  0.43290263  0.44581300  0.33636203    -0.18800
F334        F  0.04305938  0.41904143  0.43252454    -0.18900
F335        F  0.08791927  0.42833583  0.40018836    -0.22700
F336        F  0.02998549  0.37077643  0.40114531    -0.24300
C337        C  0.38068652  0.47513195  0.36359322    -0.11100
C338        C  0.35977402  0.43437173  0.36816668     0.11400
C339        C  0.37643075  0.41695106  0.38441240    -0.03000
C340        C  0.41543678  0.44092626  0.39379516    -0.05700
C341        C  0.43906309  0.48244035  0.38819233    -0.16500
C342        C  0.41921937  0.50036077  0.37371394     0.02500
C343        C  0.32314287  0.41074313  0.35202977     0.12400
C344        C  0.35285225  0.37328671  0.39200412     0.63000
H345        H  0.42827697  0.42683735  0.40568480     0.12400
C346        C  0.43349679  0.04017154  0.36133620     0.55200
H347        H  0.36597156  0.48673751  0.35113676     0.08200
C348        C  0.28887192  0.41484548  0.35543762    -0.05600
C349        C  0.26040871  0.40066248  0.33455989    -0.06300
C350        C  0.26447833  0.38157403  0.31085620    -0.15900
C351        C  0.29817210  0.37576757  0.30820268    -0.01500
C352        C  0.32701886  0.39121786  0.32872228    -0.09000
C353        C  0.28132294  0.43460605  0.38026273     0.65200
H354        H  0.23456534  0.40447141  0.33693431     0.10700
C355        C  0.30524481  0.35486200  0.28366445     0.63600
H356        H  0.35414122  0.38973564  0.32623205     0.08000
F357        F  0.40811927  0.04508596  0.34422715    -0.19400
F358        F  0.46889166  0.05607386  0.34798901    -0.15600
F359        F  0.43605515  0.06192927  0.38460630    -0.19100
F360        F  0.34409223  0.34891711  0.36900921    -0.22500
F361        F  0.31785382  0.36633070  0.40457168    -0.24000
F362        F  0.37347923  0.36276742  0.40975020    -0.18000
F363        F  0.34178568  0.35649031  0.28467135    -0.20500
F364        F  0.30426880  0.37290015  0.25996248    -0.21600
F365        F  0.27659172  0.31494016  0.28282053    -0.18800
F366        F  0.24385990  0.40948409  0.39046119    -0.18900
F367        F  0.28310160  0.46990582  0.37275763    -0.22700
F368        F  0.30827629  0.44290733  0.40095744    -0.24300
C369        C  0.03684727  0.11771172  0.37895564    -0.11100
C370        C  0.05806415  0.11889138  0.35540254     0.11400
C371        C  0.06806666  0.08853256  0.35088322    -0.03000
C372        C  0.04950973  0.05423892  0.36693517    -0.05700
C373        C  0.01849308  0.04731802  0.38580620    -0.16500
C374        C  0.01943219  0.08375428  0.39576242     0.02500
C375        C  0.07376594  0.15461435  0.33794631     0.12400
C376        C  0.09783063  0.09209146  0.32895920     0.63000
H377        H  0.05881186  0.03232336  0.36356865     0.12400
C378        C  0.00846015  0.09101977  0.42462680     0.55200
H379        H  0.03466826  0.14415179  0.38420229     0.08200
C380        C  0.05372798  0.15557134  0.31428538    -0.05600
C381        C  0.07205525  0.18903443  0.29776256    -0.06300
C382        C  0.10883332  0.22207183  0.30441060    -0.15900
C383        C  0.12792481  0.22228132  0.32891517    -0.01500
C384        C  0.10990208  0.18822945  0.34527134    -0.09000
C385        C  0.01237344  0.12266435  0.30696764     0.65200
H386        H  0.05752047  0.18966963  0.27926887     0.10700
C387        C  0.16653247  0.25824068  0.33812479     0.63600
H388        H  0.12424259  0.18717850  0.36375346     0.08000
F389        F  0.49801805  0.12387544  0.42442733    -0.19400
F390        F  0.03592233  0.09230244  0.44277738    -0.15600
F391        F  0.97125757  0.06246963  0.43226962    -0.19100
F392        F  0.13297342  0.12751397  0.33255825    -0.22500
F393        F  0.08281036  0.09149725  0.30351052    -0.24000
F394        F  0.10645218  0.06112003  0.32966324    -0.18000
F395        F  0.17644111  0.25415930  0.36435591    -0.20500
F396        F  0.16304070  0.29242386  0.33777106    -0.21600
F397        F  0.19708164  0.26264347  0.32101660    -0.18800
F398        F  0.99957601  0.12898322  0.28235091    -0.18900
F399        F  0.98627538  0.12167086  0.32685275    -0.22700
F400        F  0.01142026  0.08626797  0.30484206    -0.24300
C401        C  0.10935336  0.41679259  0.15190114    -0.11100
C402        C  0.07612347  0.42051936  0.15945020     0.11400
C403        C  0.05774355  0.40629416  0.18498537    -0.03000
C404        C  0.07496353  0.39137972  0.20298300    -0.05700
C405        C  0.10947821  0.38970356  0.19615099    -0.16500
C406        C  0.12629181  0.40125978  0.16985816     0.02500
C407        C  0.06150082  0.44040613  0.14077959     0.12400
C408        C  0.02022851  0.40718265  0.19326182     0.63000
H409        H  0.06184074  0.38137824  0.22287531     0.12400
C410        C  0.16049384  0.39518425  0.16040337     0.55200
H411        H  0.12219636  0.42664533  0.13193148     0.08200
C412        C  0.07728975  0.48210464  0.14130617    -0.05600
C413        C  0.05747053  0.49823448  0.12691697    -0.06300
C414        C  0.02066945  0.47397279  0.11321593    -0.15900
C415        C  0.01286851  0.43385632  0.10649093    -0.01500
C416        C  0.03148989  0.41728113  0.12213919    -0.09000
C417        C  0.11812492  0.00967143  0.15246699     0.65200
H418        H  0.07144942  0.02902133  0.12406250     0.10700
C419        C  0.49026612  0.41188998  0.08575646     0.63600
H420        H  0.02285385  0.38591934  0.12001689     0.08000
F421        F  0.19430606  0.42023404  0.17504299    -0.19400
F422        F  0.16880076  0.40308377  0.13303371    -0.15600
F423        F  0.15073160  0.35588161  0.16427729    -0.19100
F424        F  0.99090954  0.38612005  0.17421167    -0.22500
F425        F  0.02776154  0.44622328  0.19488947    -0.24000
F426        F  0.00609879  0.39015270  0.21834128    -0.18000
F427        F  0.48604262  0.37392348  0.08591021    -0.20500
F428        F  0.50914499  0.42911088  0.06174557    -0.21600
F429        F  0.45279819  0.40721221  0.08579069    -0.18800
F430        F  0.13027623  0.04938450  0.14759361    -0.18900
F431        F  0.14551966  0.50383614  0.14856842    -0.22700
F432        F  0.10784993  0.50048581  0.18491102    -0.24300
C433        C  0.30956067  0.39414519  0.15704019    -0.11100
C434        C  0.34430429  0.42441011  0.16905301     0.11400
C435        C  0.34286170  0.43822770  0.19581765    -0.03000
C436        C  0.30644081  0.42050314  0.20979816    -0.05700
C437        C  0.27177745  0.38889941  0.19828527    -0.16500
C438        C  0.27318509  0.37584732  0.17109990     0.02500
C439        C  0.38152935  0.44119097  0.15276547     0.12400
C440        C  0.37965905  0.47100244  0.20975784     0.63000
H441        H  0.30505026  0.43056337  0.23040544     0.12400
C442        C  0.23810580  0.34382709  0.15530688     0.55200
H443        H  0.31097991  0.38452863  0.13626797     0.08200
C444        C  0.40364585  0.42124660  0.14954897    -0.05600
C445        C  0.43875635  0.43922325  0.13414128    -0.06300
C446        C  0.45293918  0.47608075  0.12045029    -0.15900
C447        C  0.42758174  0.49413907  0.12242937    -0.01500
C448        C  0.39361118  0.47682040  0.13928536    -0.09000
C449        C  0.39062546  0.38133335  0.16295831     0.65200
H450        H  0.45588319  0.42423255  0.13427524     0.10700
C451        C  0.43371967  0.02998153  0.10650948     0.63600
H452        H  0.37553283  0.49115783  0.14185835     0.08000
F453        F  0.24446084  0.31184592  0.14994175    -0.19400
F454        F  0.23506986  0.35898145  0.13077742    -0.15600
F455        F  0.20239227  0.33029933  0.16867278    -0.19100
F456        F  0.39355254  0.50615549  0.19579308    -0.22500
F457        F  0.40877118  0.46007679  0.21031351    -0.24000
F458        F  0.37208521  0.47817983  0.23638039    -0.18000
F459        F  0.39881508  0.02852838  0.09854512    -0.20500
F460        F  0.45639243  0.03756574  0.08335919    -0.21600
F461        F  0.45235867  0.06162171  0.12484398    -0.18800
F462        F  0.41694868  0.36720004  0.15799460    -0.18900
F463        F  0.35411846  0.35289791  0.15295629    -0.22700
F464        F  0.38779001  0.38530325  0.19083806    -0.24300
C465        C  0.03593690  0.08506771  0.15848801    -0.11100
C466        C  0.05110862  0.11712912  0.14111187     0.11400
C467        C  0.04945388  0.11003577  0.11281429    -0.03000
C468        C  0.02975045  0.07017277  0.10278499    -0.05700
C469        C  0.01319373  0.03631719  0.11997741    -0.16500
C470        C  0.01787963  0.04511003  0.14914606     0.02500
C471        C  0.07041494  0.15759632  0.15422894     0.12400
C472        C  0.06875995  0.14458055  0.09334194     0.63000
H473        H  0.02640447  0.06626060  0.08110724     0.12400
C474        C  0.00120646  0.01485188  0.17198615     0.55200
H475        H  0.03797996  0.09205074  0.18014839     0.08200
C476        C  0.04816874  0.17508243  0.16500756    -0.05600
C477        C  0.06735749  0.20958967  0.18185516    -0.06300
C478        C  0.10691900  0.22491045  0.19035073    -0.15900
C479        C  0.12891271  0.20650326  0.17976703    -0.01500
C480        C  0.11040239  0.17410681  0.16113143    -0.09000
C481        C  0.00365481  0.15548325  0.16060041     0.65200
H482        H  0.05041217  0.22293024  0.19027759     0.10700
C483        C  0.17076060  0.21855399  0.18898065     0.63600
H484        H  0.12608396  0.15897657  0.15344303     0.08000
F485        F  0.96247187  0.00538000  0.17694453    -0.19400
F486        F  0.02212803  0.03041228  0.19601671    -0.15600
F487        F  0.00301086  0.98068453  0.16641730    -0.19100
F488        F  0.10901524  0.16628215  0.09847080    -0.22500
F489        F  0.05254657  0.16944994  0.09682121    -0.24000
F490        F  0.06372848  0.13157250  0.06637505    -0.18000
F491        F  0.17009548  0.20875318  0.21595021    -0.20500
F492        F  0.19526471  0.25905360  0.18603601    -0.21600
F493        F  0.18713797  0.19918231  0.17391267    -0.18800
F494        F  0.98821117  0.17894765  0.17089928    -0.18900
F495        F  0.98493674  0.11931036  0.17362926    -0.22700
F496        F  0.99499947  0.14889574  0.13314355    -0.24300
O497        O  0.10212188  0.82866083  0.28552991    -0.81100
C498        C  0.23326905  0.86905593  0.21426578     0.98300
O499        O  0.22759256  0.89178677  0.23058840    -0.70200
O500        O  0.16024056  0.89053840  0.22301084    -0.73800
Al501      Al  0.18505374  0.88455366  0.25419689     1.49000
C502        C  0.12357365  0.87345004  0.21814177     0.93500
O503        O  0.10173526  0.77708620  0.21773989    -0.80000
O504        O  0.16215565  0.77492889  0.27971651    -0.73600
Al505      Al  0.10569063  0.80486474  0.25166193     1.90100
O506        O  0.14875861  0.76298956  0.22509736    -0.72600
O507        O  0.22804408  0.83952062  0.27068972    -0.72500
O508        O  0.21286226  0.83162837  0.21616399    -0.78100
O509        O  0.21315220  0.88442794  0.28594644    -0.76300
O510        O  0.15862332  0.83135749  0.25126604    -1.12500
O511        O  0.14846582  0.88967680  0.27827451    -0.71700
C512        C  0.11879069  0.86546081  0.29172970     0.99100
C513        C  0.11891545  0.75710635  0.21174020     0.95400
Al514      Al  0.18549491  0.80464424  0.24814342     1.55600
O515        O  0.09947204  0.84295330  0.23105253    -0.76300
C516        C  0.23345750  0.86689265  0.28751640     0.99600
C517        C  0.12570041  0.75484956  0.28475942     0.94500
O518        O  0.10114411  0.76147560  0.27238591    -0.81600
C519        C  0.99334691  0.49317078  0.10552667    -0.01800
C520        C  0.48370534  0.50076801  0.39747350    -0.01800
O521        O  0.39576817  0.67472606  0.78033603    -0.81100
C522        C  0.26587829  0.63234436  0.71014493     0.98300
O523        O  0.27343329  0.60824303  0.72229292    -0.70200
O524        O  0.34113011  0.60958824  0.71714881    -0.73800
Al525      Al  0.31334099  0.61488411  0.74784403     1.49000
C526        C  0.37791572  0.62681278  0.71344820     0.93500
O527        O  0.39211553  0.71986815  0.71336826    -0.80000
O528        O  0.33722692  0.72590949  0.78029875    -0.73600
Al529      Al  0.39150250  0.69607559  0.74703928     1.90100
O530        O  0.34709705  0.73653186  0.72446694    -0.72600
O531        O  0.26914720  0.65979321  0.77106693    -0.72500
O532        O  0.28249502  0.66882003  0.71677137    -0.78100
O533        O  0.28002055  0.61000392  0.77806368    -0.76300
O534        O  0.33845536  0.66843102  0.74781183    -1.12500
O535        O  0.34943026  0.61233550  0.77374225    -0.71700
C536        C  0.37957254  0.63848716  0.78679432     0.99100
C537        C  0.37468089  0.73967844  0.70884974     0.95400
Al538      Al  0.31144362  0.69529022  0.74822183     1.55600
O539        O  0.40026979  0.65834783  0.72649787    -0.76300
C540        C  0.26013509  0.62749489  0.78249274     0.99600
C541        C  0.37422845  0.74799731  0.78248881     0.94500
O542        O  0.39753416  0.74169932  0.76766710    -0.81600
C543        C  0.00185560  0.00548542  0.89598362    -0.01800
C544        C  0.50987687  0.49478848  0.60722082    -0.01800
C545        C  0.43213667  0.89526359  0.87340231    -0.11100
C546        C  0.45357258  0.88771377  0.85337737     0.11400
C547        C  0.49215374  0.91768485  0.84717560    -0.03000
C548        C  0.50806882  0.95443196  0.86153078    -0.05700
C549        C  0.48791967  0.96354303  0.88293908    -0.16500
C550        C  0.44689857  0.93247445  0.88760977     0.02500
C551        C  0.43220599  0.85053038  0.83630455     0.12400
C552        C  0.51604709  0.91168345  0.82438549     0.63000
H553        H  0.03294305  0.97510822  0.85606042     0.12400
C554        C  0.41580526  0.93644979  0.90533160     0.55200
H555        H  0.40213520  0.87144978  0.87662902     0.08200
C556        C  0.42627389  0.81283096  0.84443568    -0.05600
C557        C  0.40600350  0.77944038  0.82665087    -0.06300
C558        C  0.39120126  0.78282165  0.80153607    -0.15900
C559        C  0.39636468  0.82030744  0.79379831    -0.01500
C560        C  0.41635970  0.85347699  0.81155717    -0.09000
C561        C  0.44143747  0.80807305  0.87162297     0.65200
H562        H  0.40195737  0.75049869  0.83203032     0.10700
C563        C  0.38199400  0.82545735  0.76644071     0.63600
H564        H  0.42056599  0.88242748  0.80603098     0.08000
F565        F  0.37859447  0.90290944  0.90340772    -0.19400
F566        F  0.41070770  0.96748354  0.89702407    -0.15600
F567        F  0.42524324  0.94080249  0.93248151    -0.19100
F568        F  0.49971864  0.91129320  0.79947534    -0.22500
F569        F  0.51581056  0.87585996  0.82731822    -0.24000
F570        F  0.05657984  0.93927843  0.83082807    -0.18000
F571        F  0.38851733  0.86395891  0.76334917    -0.20500
F572        F  0.34174180  0.79950612  0.76396405    -0.21600
F573        F  0.40197439  0.81741730  0.74580496    -0.18800
F574        F  0.43353934  0.76919679  0.87520059    -0.18900
F575        F  0.42333753  0.81795906  0.89259411    -0.22700
F576        F  0.48199893  0.83289311  0.87323847    -0.24300
C577        C  0.11509755  0.54015424  0.87132240    -0.11100
C578        C  0.12100818  0.56816674  0.85181280     0.11400
C579        C  0.09198643  0.57960837  0.84830755    -0.03000
C580        C  0.05821204  0.56311273  0.86522252    -0.05700
C581        C  0.04851014  0.53067629  0.88291930    -0.16500
C582        C  0.08009248  0.52109090  0.88717194     0.02500
C583        C  0.15757260  0.58373719  0.83474623     0.12400
C584        C  0.09549568  0.60743414  0.82562998     0.63000
H585        H  0.03899919  0.57576922  0.86374548     0.12400
C586        C  0.07724100  0.99369249  0.91277773     0.55200
H587        H  0.13869420  0.53300296  0.87360883     0.08200
C588        C  0.19354240  0.61807530  0.84244249    -0.05600
C589        C  0.22643962  0.63153790  0.82473698    -0.06300
C590        C  0.22525629  0.61004386  0.80088988    -0.15900
C591        C  0.19015158  0.57389921  0.79428694    -0.01500
C592        C  0.15661423  0.56173680  0.81121671    -0.09000
C593        C  0.19766897  0.63924609  0.86975574     0.65200
H594        H  0.25375424  0.65864026  0.82963092     0.10700
C595        C  0.18760933  0.54884301  0.76912722     0.63600
H596        H  0.12916150  0.53481755  0.80625901     0.08000
F597        F  0.07988576  0.50666203  0.93411544    -0.19400
F598        F  0.11054419  0.98898515  0.91200478    -0.15600
F599        F  0.04526342  0.95603334  0.90904665    -0.19100
F600        F  0.09648275  0.59023968  0.80071889    -0.22500
F601        F  0.12977496  0.64375863  0.82851513    -0.24000
F602        F  0.06373296  0.61462501  0.82543110    -0.18000
F603        F  0.15112596  0.51440951  0.76703599    -0.20500
F604        F  0.21639342  0.53748292  0.77008025    -0.21600
F605        F  0.19310973  0.57077971  0.74610071    -0.18800
F606        F  0.23522686  0.67177354  0.87321772    -0.18900
F607        F  0.19102030  0.61298381  0.89045384    -0.22700
F608        F  0.17053531  0.65271052  0.87204980    -0.24300
C609        C  0.45244057  0.62869785  0.83389458    -0.11100
C610        C  0.42764098  0.59142903  0.84517271     0.11400
C611        C  0.38621508  0.57334492  0.84136781    -0.03000
C612        C  0.37151325  0.59002292  0.82257526    -0.05700
C613        C  0.39669669  0.62583871  0.80919702    -0.16500
C614        C  0.43764271  0.64711560  0.81664128     0.02500
C615        C  0.44613958  0.57038614  0.85879116     0.12400
C616        C  0.35797770  0.53696428  0.85746300     0.63000
H617        H  0.34007679  0.57501994  0.81814996     0.12400
C618        C  0.46616212  0.68861265  0.80636889     0.55200
H619        H  0.48388893  0.64266113  0.83813014     0.08200
C620        C  0.45689042  0.54538287  0.84385560    -0.05600
C621        C  0.47450980  0.52653957  0.85761524    -0.06300
C622        C  0.48180243  0.53050917  0.88629643    -0.15900
C623        C  0.46482113  0.55167023  0.90152050    -0.01500
C624        C  0.45129132  0.57405364  0.88696811    -0.09000
C625        C  0.45104152  0.53972958  0.81312231     0.65200
H626        H  0.98425482  0.50657287  0.84344229     0.10700
C627        C  0.45499788  0.55006591  0.93191370     0.63600
H628        H  0.44161764  0.59266390  0.89799929     0.08000
F629        F  0.46904578  0.68762222  0.77830062    -0.19400
F630        F  0.50394041  0.70337560  0.81683912    -0.15600
F631        F  0.45291394  0.71492536  0.81435970    -0.19100
F632        F  0.36292657  0.54669545  0.88498655    -0.22500
F633        F  0.36557332  0.50575306  0.85235634    -0.24000
F634        F  0.31876605  0.52399061  0.85101294    -0.18000
F635        F  0.48178954  0.58523777  0.94496901    -0.20500
F636        F  0.45169669  0.01262825  0.94313917    -0.21600
F637        F  0.41573494  0.03982829  0.93259849    -0.18800
F638        F  0.96738133  0.51509346  0.80006009    -0.18900
F639        F  0.97593639  0.57710059  0.80138286    -0.22700
F640        F  0.41151537  0.52487078  0.80677473    -0.24300
C641        C  0.38332748  0.81588953  0.65652119    -0.11100
C642        C  0.42357742  0.83310836  0.64968663     0.11400
C643        C  0.44631985  0.81662235  0.65989492    -0.03000
C644        C  0.42830801  0.78443769  0.67772516    -0.05700
C645        C  0.38875642  0.76901444  0.68637111    -0.16500
C646        C  0.36517965  0.78383043  0.67453973     0.02500
C647        C  0.44272704  0.87321995  0.63726830     0.12400
C648        C  0.49029503  0.83496765  0.65378860     0.63000
H649        H  0.44607244  0.77294174  0.68654433     0.12400
C650        C  0.32122825  0.76656995  0.68066904     0.55200
H651        H  0.36675518  0.82951987  0.64885894     0.08200
C652        C  0.44307743  0.87962803  0.60917300    -0.05600
C653        C  0.46311573  0.91925247  0.59992978    -0.06300
C654        C  0.48325892  0.95315897  0.61765994    -0.15900
C655        C  0.47715381  0.94564075  0.64671443    -0.01500
C656        C  0.45805261  0.90581275  0.65531504    -0.09000
C657        C  0.42257947  0.84476990  0.58905729     0.65200
H658        H  0.46297834  0.92333763  0.57839555     0.10700
C659        C  0.48698964  0.97702352  0.66971346     0.63600
H660        H  0.45394640  0.89915660  0.67679170     0.08000
F661        F  0.30344611  0.78098071  0.66337897    -0.19400
F662        F  0.31585469  0.77666148  0.70702078    -0.15600
F663        F  0.30210474  0.72547456  0.67724155    -0.19100
F664        F  0.51032167  0.87202176  0.66650190    -0.22500
F665        F  0.49694002  0.83907636  0.62605249    -0.24000
F666        F  0.50583632  0.81179697  0.66308004    -0.18000
F667        F  0.45984975  0.99049322  0.66964367    -0.20500
F668        F  0.02307132  0.50829503  0.66692464    -0.21600
F669        F  0.98516551  0.96281641  0.69535462    -0.18800
F670        F  0.42449925  0.85745290  0.56268194    -0.18900
F671        F  0.38301786  0.82194583  0.59595926    -0.22700
F672        F  0.44031835  0.82111369  0.58946315    -0.24300
C673        C  0.20366725  0.58510000  0.64674426    -0.11100
C674        C  0.16849063  0.58487143  0.65460748     0.11400
C675        C  0.16635735  0.60211523  0.67998858    -0.03000
C676        C  0.19983284  0.61907117  0.69684611    -0.05700
C677        C  0.23416690  0.61734575  0.68970579    -0.16500
C678        C  0.23690399  0.60128209  0.66404373     0.02500
C679        C  0.13232196  0.56074289  0.63826420     0.12400
C680        C  0.12835356  0.60112819  0.68967621     0.63000
H681        H  0.19884172  0.63216862  0.71647446     0.12400
C682        C  0.27473592  0.60156967  0.65509440     0.55200
H683        H  0.20427847  0.57104313  0.62744880     0.08200
C684        C  0.12156182  0.57540590  0.61596485    -0.05600
C685        C  0.08344409  0.55193072  0.60488161    -0.06300
C686        C  0.05573150  0.51338936  0.61468741    -0.15900
C687        C  0.07227366  0.49599260  0.63279820    -0.01500
C688        C  0.10829036  0.52149394  0.64583509    -0.09000
C689        C  0.15001495  0.61577329  0.60429288     0.65200
H690        H  0.07409891  0.56534793  0.58973750     0.10700
C691        C  0.06441955  0.95537031  0.63915000     0.63600
H692        H  0.11891510  0.51011593  0.66181638     0.08000
F693        F  0.27247553  0.58808755  0.62838661    -0.19400
F694        F  0.28175828  0.57710345  0.67156806    -0.15600
F695        F  0.30631660  0.64010355  0.65704885    -0.19100
F696        F  0.09880324  0.56204423  0.69292913    -0.22500
F697        F  0.11622973  0.61892232  0.67081378    -0.24000
F698        F  0.13337326  0.62121781  0.71440811    -0.18000
F699        F  0.09763968  0.95067153  0.63636679    -0.20500
F700        F  0.03701247  0.92766680  0.62173945    -0.21600
F701        F  0.05112288  0.94689889  0.66569156    -0.18800
F702        F  0.13364876  0.62478489  0.58255474    -0.18900
F703        F  0.18387897  0.61549819  0.59515004    -0.22700
F704        F  0.16033219  0.64551957  0.62405746    -0.24300
C705        C  0.43100131  0.57288741  0.68530517    -0.11100
C706        C  0.43390478  0.58177672  0.65758861     0.11400
C707        C  0.41708506  0.60459241  0.64788508    -0.03000
C708        C  0.39742907  0.61757631  0.66658839    -0.05700
C709        C  0.39555863  0.60944702  0.69442782    -0.16500
C710        C  0.41279431  0.58707000  0.70405912     0.02500
C711        C  0.45539597  0.56666686  0.63981177     0.12400
C712        C  0.42190024  0.61695937  0.61837526     0.63000
H713        H  0.38454937  0.63532685  0.65982499     0.12400
C714        C  0.41238727  0.57871545  0.73411727     0.55200
H715        H  0.44406360  0.55537910  0.69221675     0.08200
C716        C  0.49614497  0.58028555  0.64304992    -0.05600
C717        C  0.51219309  0.55696510  0.63241221    -0.06300
C718        C  0.48984077  0.52069040  0.61715158    -0.15900
C719        C  0.44882109  0.50969406  0.61159925    -0.01500
C720        C  0.43282095  0.53231628  0.62402097    -0.09000
C721        C  0.52332095  0.61757089  0.65966930     0.65200
H722        H  0.04412202  0.56728402  0.63667089     0.10700
C723        C  0.41841332  0.47216765  0.59605284     0.63600
H724        H  0.40122440  0.52165941  0.62298629     0.08000
F725        F  0.43250037  0.61436321  0.74865609    -0.19400
F726        F  0.43050584  0.55611485  0.73912463    -0.15600
F727        F  0.37368410  0.55806743  0.74336395    -0.19100
F728        F  0.40479471  0.58360838  0.60128650    -0.22500
F729        F  0.46182121  0.63926171  0.61220114    -0.24000
F730        F  0.40417513  0.63991986  0.61335569    -0.18000
F731        F  0.40314234  0.93774687  0.61531538    -0.20500
F732        F  0.43042003  0.96306916  0.57462960    -0.21600
F733        F  0.38761625  0.47715082  0.58650833    -0.18800
F734        F  0.05971595  0.64029141  0.64433586    -0.18900
F735        F  0.53066868  0.60640908  0.68451336    -0.22700
F736        F  0.50750088  0.64266052  0.66416307    -0.24300
C737        C  0.46292932  0.98343489  0.47411925    -0.11100
C738        C  0.00936333  0.50485702  0.48392447     0.11400
C739        C  0.03982404  0.51965731  0.46428475    -0.03000
C740        C  0.02955871  0.51820341  0.43671303    -0.05700
C741        C  0.48708809  0.50081231  0.42978313    -0.16500
C742        C  0.45375341  0.98696900  0.44700104     0.02500
C743        C  0.01646582  0.50677455  0.51379099     0.12400
C744        C  0.08298353  0.53659267  0.47232561     0.63000
H745        H  0.05300802  0.52806578  0.42166387     0.12400
C746        C  0.41012658  0.97684863  0.44441395     0.55200
H747        H  0.43918538  0.96911471  0.48889732     0.08200
C748        C  0.50556100  0.52780595  0.53304199    -0.05600
C749        C  0.50735728  0.52530217  0.56132723    -0.06300
C750        C  0.51276860  0.49557070  0.57454035    -0.15900
C751        C  0.02906996  0.97544125  0.55425369    -0.01500
C752        C  0.02301048  0.97593354  0.52591431    -0.09000
C753        C  0.49863598  0.56019830  0.52122711     0.65200
H754        H  0.50491324  0.54798910  0.57311149     0.10700
C755        C  0.05125811  0.95327351  0.56191144     0.63600
H756        H  0.02801488  0.95647509  0.51198604     0.08000
F757        F  0.40164183  0.99312845  0.42274412    -0.19400
F758        F  0.39933025  0.99179930  0.46702745    -0.15600
F759        F  0.38588244  0.93583142  0.44382552    -0.19100
F760        F  0.08856898  0.50678783  0.48298098    -0.22500
F761        F  0.09343009  0.56690630  0.49168247    -0.24000
F762        F  0.10829828  0.55216815  0.45027836    -0.18000
F763        F  0.52342467  0.91848195  0.57156175    -0.20500
F764        F  0.08116958  0.97523371  0.58011525    -0.21600
F765        F  0.06983745  0.94693263  0.53947308    -0.18800
F766        F  0.49845563  0.58644470  0.54108738    -0.18900
F767        F  0.46247248  0.54308723  0.50816744    -0.22700
F768        F  0.03561971  0.58698774  0.49911949    -0.24300
C769        C  0.53116191  0.54611809  0.97346437    -0.11100
C770        C  0.00833207  0.50228101  0.98461637     0.11400
C771        C  0.99179785  0.96603527  0.96981876    -0.03000
C772        C  0.99229624  0.96921628  0.94134873    -0.05700
C773        C  0.00493806  0.00588565  0.92793343    -0.16500
C774        C  0.53432734  0.54928067  0.94467455     0.02500
C775        C  0.00467467  0.50104822  0.01496687     0.12400
C776        C  0.97922564  0.92560446  0.98221855     0.63000
H777        H  0.98242483  0.94197241  0.92959215     0.12400
C778        C  0.56171339  0.59090044  0.93354943     0.55200
H779        H  0.54243233  0.57267386  0.98640366     0.08200
C780        C  0.03739149  0.51369798  0.03234619    -0.05600
C781        C  0.03075451  0.50965609  0.06062046    -0.06300
C782        C  0.98994779  0.99031352  0.07489741    -0.15900
C783        C  0.46105572  0.97707769  0.05580885    -0.01500
C784        C  0.46956382  0.98770451  0.02812827    -0.09000
C785        C  0.07940298  0.53201877  0.02114570     0.65200
H786        H  0.05650528  0.52148152  0.07363753     0.10700
C787        C  0.41642971  0.94895482  0.06014807     0.63600
H788        H  0.44533908  0.97950829  0.01399063     0.08000
F789        F  0.59622069  0.59273834  0.92375526    -0.19400
F790        F  0.57111129  0.11729391  0.95398120    -0.15600
F791        F  0.54417932  0.60058331  0.91314528    -0.19100
F792        F  0.94288677  0.91163939  0.99497650    -0.22500
F793        F  0.01043991  0.43052573  0.00077828    -0.24000
F794        F  0.97576761  0.89729096  0.96273418    -0.18000
F795        F  0.39641051  0.97038128  0.05873058    -0.20500
F796        F  0.40562901  0.92776170  0.08354952    -0.21600
F797        F  0.40225243  0.92012437  0.03943597    -0.18800
F798        F  0.10658749  0.53765754  0.04115192    -0.18900
F799        F  0.09017042  0.56880076  0.01030865    -0.22700
F800        F  0.08171672  0.50729516  0.00103217    -0.24300
C801        C  0.10233062  0.93219452  0.34419469    -0.11100
C802        C  0.06212885  0.90787555  0.35031281     0.11400
C803        C  0.04183966  0.86831398  0.33947157    -0.03000
C804        C  0.06216268  0.85530874  0.32158230    -0.05700
C805        C  0.10184185  0.88045545  0.31380163    -0.16500
C806        C  0.12282364  0.91943319  0.32617397     0.02500
C807        C  0.04096257  0.92797938  0.36259796     0.12400
C808        C  0.99847921  0.83904557  0.34507152     0.63000
H809        H  0.04596307  0.82546139  0.31264107     0.12400
C810        C  0.16626180  0.94831545  0.32030469     0.55200
H811        H  0.11694478  0.96251793  0.35241907     0.09400
C812        C  0.03752284  0.93275688  0.39074674    -0.05600
C813        C  0.01687642  0.95251711  0.40007341    -0.06300
C814        C  0.00358348  0.97261801  0.38250450    -0.15900
C815        C  0.00366506  0.96295292  0.35356319    -0.01500
C816        C  0.02333723  0.94196382  0.34473950    -0.09000
C817        C  0.05587527  0.91710661  0.41077285     0.65200
H818        H  0.01094230  0.95131384  0.42155067     0.10700
C819        C  0.47650921  0.96831370  0.33051381     0.63600
H820        H  0.02491148  0.93541647  0.32331096     0.08000
F821        F  0.18130124  0.98173558  0.33746483    -0.19400
F822        F  0.17068303  0.96140119  0.29386980    -0.15600
F823        F  0.18855778  0.92966225  0.32408887    -0.19100
F824        F  0.47554448  0.86263729  0.32489309    -0.22500
F825        F  0.98135394  0.85323616  0.36404072    -0.24000
F826        F  0.99522851  0.80408388  0.35480800    -0.18000
F827        F  0.99274699  0.96470459  0.30522187    -0.20500
F828        F  0.48503201  0.00725049  0.32989738    -0.21600
F829        F  0.43639302  0.94354123  0.33404570    -0.18800
F830        F  0.04893335  0.92420475  0.43756015    -0.18900
F831        F  0.09646788  0.93583806  0.40676444    -0.22700
F832        F  0.04030096  0.87635579  0.40679858    -0.24300
C833        C  0.38065696  0.97003734  0.35833960    -0.11100
C834        C  0.36021937  0.92987687  0.36469604     0.11400
C835        C  0.37743748  0.91419554  0.38191953    -0.03000
C836        C  0.41645525  0.93937788  0.39087404    -0.05700
C837        C  0.43919941  0.98066389  0.38421421    -0.16500
C838        C  0.41900972  0.99662250  0.36807927     0.02500
C839        C  0.32267961  0.90506406  0.34990928     0.12400
C840        C  0.35430493  0.87124197  0.39108602     0.63000
H841        H  0.42977981  0.92660247  0.40357556     0.12400
C842        C  0.43442310  0.54466892  0.36922773     0.55200
H843        H  0.36538824  0.98012103  0.34510134     0.08200
C844        C  0.28911928  0.91027402  0.35368215    -0.05600
C845        C  0.26038114  0.89674089  0.33306297    -0.06300
C846        C  0.26403684  0.87812744  0.30898387    -0.15900
C847        C  0.29692000  0.87108623  0.30597391    -0.01500
C848        C  0.32546003  0.88475302  0.32667396    -0.09000
C849        C  0.28296220  0.93107071  0.37850994     0.65200
H850        H  0.23500323  0.90125948  0.33575488     0.10700
C851        C  0.30386783  0.85150717  0.28061416     0.63600
H852        H  0.35202878  0.88226394  0.32403616     0.08000
F853        F  0.40838666  0.55196247  0.35457719    -0.19400
F854        F  0.46871164  0.56070983  0.35450703    -0.15600
F855        F  0.43942621  0.56466173  0.39371362    -0.19100
F856        F  0.34645443  0.84526168  0.36907493    -0.22500
F857        F  0.31881262  0.86453499  0.40272475    -0.24000
F858        F  0.37492164  0.86280829  0.41021010    -0.18000
F859        F  0.33992368  0.85208685  0.28131165    -0.20500
F860        F  0.30395178  0.87167816  0.25770871    -0.21600
F861        F  0.27458269  0.81191031  0.27843666    -0.18800
F862        F  0.24605381  0.90647850  0.38968978    -0.18900
F863        F  0.28445250  0.96612167  0.37069816    -0.22700
F864        F  0.31099706  0.94013622  0.39856237    -0.24300
C865        C  0.03772321  0.61806702  0.37835964    -0.11100
C866        C  0.05920691  0.61831231  0.35518946     0.11400
C867        C  0.06730213  0.58665153  0.35086887    -0.03000
C868        C  0.04665919  0.55229525  0.36655834    -0.05700
C869        C  0.01601505  0.54694953  0.38536149    -0.16500
C870        C  0.01906109  0.58432957  0.39529370     0.02500
C871        C  0.07590225  0.65364260  0.33734001     0.12400
C872        C  0.09786360  0.58929813  0.32993461     0.63000
H873        H  0.05489805  0.52952129  0.36353749     0.12400
C874        C  0.01090327  0.59316359  0.42454018     0.55200
H875        H  0.03683069  0.64524393  0.38344674     0.08200
C876        C  0.05516988  0.65513186  0.31427308    -0.05600
C877        C  0.07310971  0.68866048  0.29784022    -0.06300
C878        C  0.11052691  0.72117111  0.30380416    -0.15900
C879        C  0.13121549  0.72025779  0.32721098    -0.01500
C880        C  0.11328842  0.68620786  0.34362966    -0.09000
C881        C  0.01334504  0.62275057  0.30761473     0.65200
H882        H  0.05758531  0.68984683  0.28004155     0.10700
C883        C  0.17131394  0.75507415  0.33532972     0.63600
H884        H  0.12838572  0.68452208  0.36151033     0.08000
F885        F  0.50790207  0.62630178  0.43075769    -0.19400
F886        F  0.03950274  0.59414997  0.44145969    -0.15600
F887        F  0.97418954  0.56581839  0.43381227    -0.19100
F888        F  0.13454425  0.62130660  0.33652069    -0.22500
F889        F  0.08719941  0.59459072  0.30429663    -0.24000
F890        F  0.10148696  0.55513139  0.32893877    -0.18000
F891        F  0.18362063  0.74948837  0.36036214    -0.20500
F892        F  0.16909227  0.78996230  0.33710979    -0.21600
F893        F  0.19968004  0.75920056  0.31625728    -0.18800
F894        F  0.00075286  0.62805938  0.28260203    -0.18900
F895        F  0.98801215  0.62401030  0.32724643    -0.22700
F896        F  0.01108526  0.58569646  0.30678257    -0.24300
C897        C  0.10579969  0.91393643  0.15300340    -0.11100
C898        C  0.07539354  0.92162607  0.16154179     0.11400
C899        C  0.05974658  0.91177713  0.18826217    -0.03000
C900        C  0.07625251  0.89581365  0.20596995    -0.05700
C901        C  0.10791114  0.88988493  0.19790167    -0.16500
C902        C  0.12255325  0.89826708  0.17087458     0.02500
C903        C  0.06031118  0.94007162  0.14220953     0.12400
C904        C  0.02660593  0.91922021  0.19835116     0.63000
H905        H  0.06518854  0.88871353  0.22662669     0.12400
C906        C  0.15433796  0.88893004  0.16069044     0.55200
H907        H  0.11660627  0.92080218  0.13228491     0.08200
C908        C  0.07797300  0.98169052  0.13980669    -0.05600
C909        C  0.05741324  0.99700443  0.12551557    -0.06300
C910        C  0.01879736  0.97211843  0.11436835    -0.15900
C911        C  0.00916153  0.93102308  0.10939231    -0.01500
C912        C  0.02819165  0.91543000  0.12548826    -0.09000
C913        C  0.11443069  0.50931079  0.15758330     0.65200
H914        H  0.07053859  0.53026711  0.12754631     0.10700
C915        C  0.48480021  0.90559236  0.08829459     0.63600
H916        H  0.01794967  0.88363225  0.12540087     0.08000
F917        F  0.18989568  0.91394676  0.17354318    -0.19400
F918        F  0.16025766  0.89384073  0.13287558    -0.15600
F919        F  0.14287850  0.84962655  0.16616647    -0.19100
F920        F  0.99440517  0.90063479  0.18105997    -0.22500
F921        F  0.04006528  0.95981095  0.19937694    -0.24000
F922        F  0.01386465  0.90471359  0.22421328    -0.18000
F923        F  0.48482841  0.86951257  0.08690971    -0.20500
F924        F  0.49827513  0.92325316  0.06343751    -0.21600
F925        F  0.44615405  0.89662782  0.09198371    -0.18800
F926        F  0.12572019  0.54929226  0.15490080    -0.18900
F927        F  0.14632140  0.00106881  0.14151869    -0.22700
F928        F  0.11651495  0.00497470  0.18033430    -0.24300
C929        C  0.30404224  0.89268005  0.15340194    -0.11100
C930        C  0.33926719  0.92227187  0.16534162     0.11400
C931        C  0.33856990  0.93612156  0.19221722    -0.03000
C932        C  0.30261923  0.91860829  0.20660458    -0.05700
C933        C  0.26756663  0.88734837  0.19536533    -0.16500
C934        C  0.26791029  0.87483544  0.16784265     0.02500
C935        C  0.37660709  0.93806910  0.14932074     0.12400
C936        C  0.37585813  0.96822256  0.20608055     0.63000
H937        H  0.30203051  0.92829619  0.22744858     0.12400
C938        C  0.23185969  0.84452690  0.15195933     0.55200
H939        H  0.30488065  0.88321011  0.13249958     0.08200
C940        C  0.39979649  0.91916955  0.14877907    -0.05600
C941        C  0.43680205  0.93795251  0.13562395    -0.06300
C942        C  0.45102280  0.97368668  0.12063364    -0.15900
C943        C  0.42508594  0.99116182  0.12015922    -0.01500
C944        C  0.38930084  0.97324017  0.13516000    -0.09000
C945        C  0.38496391  0.87854926  0.16152050     0.65200
H946        H  0.45461099  0.92409650  0.13780510     0.10700
C947        C  0.43446791  0.53227839  0.10878134     0.63600
H948        H  0.37071938  0.98710544  0.13627343     0.08000
F949        F  0.23778968  0.81331982  0.14311175    -0.19400
F950        F  0.22715728  0.86266180  0.12944137    -0.15600
F951        F  0.19712722  0.82902564  0.16668426    -0.19100
F952        F  0.39242173  0.00255531  0.19098653    -0.22500
F953        F  0.40282811  0.95471494  0.20849272    -0.24000
F954        F  0.36819395  0.97809147  0.23195530    -0.18000
F955        F  0.39863257  0.52887519  0.10103247    -0.20500
F956        F  0.45712432  0.54070089  0.08556841    -0.21600
F957        F  0.45221648  0.56411067  0.12705799    -0.18800
F958        F  0.41346960  0.86665916  0.16101900    -0.18900
F959        F  0.35240473  0.85024379  0.14711925    -0.22700
F960        F  0.37403390  0.87935291  0.18836010    -0.24300
C961        C  0.02862670  0.58529072  0.15710370    -0.11100
C962        C  0.04606260  0.61783796  0.14012639     0.11400
C963        C  0.04897480  0.61134169  0.11206984    -0.03000
C964        C  0.03091657  0.57167931  0.10165380    -0.05700
C965        C  0.01334489  0.53741728  0.11848653    -0.16500
C966        C  0.01480273  0.54582345  0.14762516     0.02500
C967        C  0.06584924  0.65801837  0.15367904     0.12400
C968        C  0.07180595  0.64628579  0.09330620     0.63000
H969        H  0.03024360  0.56831764  0.07991015     0.12400
C970        C  0.00284406  0.51656165  0.17092354     0.55200
H971        H  0.02797425  0.59131394  0.17879558     0.08200
C972        C  0.04473646  0.67740445  0.16315327    -0.05600
C973        C  0.06401564  0.71115243  0.18071472    -0.06300
C974        C  0.10303592  0.72502904  0.18994145    -0.15900
C975        C  0.12453917  0.70604268  0.17942275    -0.01500
C976        C  0.10531542  0.67304559  0.16141246    -0.09000
C977        C  0.00145585  0.66128717  0.15583050     0.65200
H978        H  0.04773092  0.72551192  0.18861146     0.10700
C979        C  0.16703882  0.71875703  0.18748583     0.63600
H980        H  0.12026275  0.65684917  0.15438781     0.08000
F981        F  0.96828319  0.51227197  0.18246839    -0.19400
F982        F  0.03213650  0.53183400  0.19067086    -0.15600
F983        F  0.99750625  0.47957465  0.16399806    -0.19100
F984        F  0.11124722  0.66674116  0.10091315    -0.22500
F985        F  0.05656686  0.67215028  0.09494805    -0.24000
F986        F  0.07005224  0.63390370  0.06637329    -0.18000
F987        F  0.16821583  0.70956853  0.21437165    -0.20500
F988        F  0.19095322  0.75925815  0.18394298    -0.21600
F989        F  0.18293366  0.69951085  0.17177169    -0.18800
F990        F  0.98733927  0.68629208  0.16531271    -0.18900
F991        F  0.97862519  0.62425357  0.16717916    -0.22700
F992        F  0.99683930  0.65748991  0.12788752    -0.24300
O993        O  0.60181979  0.32972765  0.28540279    -0.81100
C994        C  0.73501840  0.37007491  0.21573691     0.98300
O995        O  0.72896736  0.39304309  0.23165601    -0.70200
O996        O  0.66168713  0.39258599  0.22407498    -0.73800
Al997      Al  0.68610513  0.38596152  0.25527080     1.49000
C998        C  0.62512268  0.37557046  0.21889439     0.93500
O999        O  0.60370736  0.27877316  0.21803263    -0.80000
O1000       O  0.66211836  0.27603986  0.28119078    -0.73600
Al1001     Al  0.60669047  0.30628531  0.25182124     1.90100
O1002       O  0.64995925  0.26398555  0.22638242    -0.72600
O1003       O  0.72888496  0.34056976  0.27235841    -0.72500
O1004       O  0.71456342  0.33264635  0.21783465    -0.78100
O1005       O  0.71403831  0.38581162  0.28697829    -0.76300
O1006       O  0.65965975  0.33273766  0.25218225    -1.12500
O1007       O  0.64890786  0.39085768  0.27937508    -0.71700
C1008       C  0.61805847  0.36640761  0.29185932     0.99100
C1009       C  0.62038913  0.25815445  0.21269602     0.95400
Al1010     Al  0.68641991  0.30574042  0.24962468     1.55600
O1011       O  0.60096748  0.34438001  0.23107890    -0.76300
C1012       C  0.73465482  0.36864018  0.28864404     0.99600
C1013       C  0.62544750  0.25617949  0.28574894     0.94500
O1014       O  0.60147843  0.26287516  0.27269129    -0.81600
C1015       C  0.49390306  0.99342498  0.10757403    -0.01800
C1016       C  0.98879507  0.00251308  0.39520506    -0.01800
O1017       O  0.89573012  0.17230981  0.77669245    -0.81100
C1018       C  0.76453338  0.13370356  0.70804088     0.98300
O1019       O  0.77225953  0.10900685  0.71916439    -0.70200
O1020       O  0.83991784  0.10997761  0.71266594    -0.73800
Al1021     Al  0.81261026  0.11446547  0.74399809     1.49000
C1022       C  0.87676313  0.12675170  0.70909434     0.93500
O1023       O  0.89158479  0.22038734  0.71104598    -0.80000
O1024       O  0.83764482  0.22462164  0.77854768    -0.73600
Al1025     Al  0.89122385  0.19525283  0.74405886     1.90100
O1026       O  0.84638503  0.23645518  0.72288541    -0.72600
O1027       O  0.77008153  0.15970806  0.76988388    -0.72500
O1028       O  0.78141647  0.16981695  0.71547960    -0.78100
O1029       O  0.78027210  0.10906030  0.77486453    -0.76300
O1030       O  0.83812044  0.16798017  0.74498205    -1.12500
O1031       O  0.84877872  0.11049080  0.76884556    -0.71700
C1032       C  0.87920371  0.13562177  0.78210012     0.99100
C1033       C  0.87364738  0.23982824  0.70689672     0.95400
Al1034     Al  0.81135392  0.19513780  0.74662654     1.55600
O1035       O  0.89936045  0.15797250  0.72237793    -0.76300
C1036       C  0.76151747  0.12727445  0.78088224     0.99600
C1037       C  0.87454496  0.24625062  0.78092167     0.94500
O1038       O  0.89779925  0.24019256  0.76585820    -0.81600
C1039       C  0.50829199  0.51173564  0.89624095    -0.01800
C1040       C  0.01362809  0.99529720  0.60556576    -0.01800
C1041       C  0.92986776  0.39119611  0.87275241    -0.11100
C1042       C  0.95160957  0.38479802  0.85240737     0.11400
C1043       C  0.98877454  0.41616598  0.84498950    -0.03000
C1044       C  0.00363174  0.45297450  0.85909132    -0.05700
C1045       C  0.98330658  0.46089393  0.88097308    -0.16500
C1046       C  0.94296199  0.42871980  0.88606638     0.02500
C1047       C  0.93105599  0.34745128  0.83569015     0.12400
C1048       C  0.01259179  0.41068475  0.82191182     0.63000
H1049       H  0.53268692  0.48003970  0.85296871     0.12400
C1050       C  0.91094302  0.43162639  0.90333184     0.55200
H1051       H  0.90080756  0.36616262  0.87686643     0.08200
C1052       C  0.93334970  0.31236846  0.84045996    -0.05600
C1053       C  0.91340323  0.27928168  0.82252618    -0.06300
C1054       C  0.89116794  0.28023713  0.80054440    -0.15900
C1055       C  0.88799427  0.31486072  0.79632269    -0.01500
C1056       C  0.90769688  0.34776370  0.81425101    -0.09000
C1057       C  0.95590271  0.30791289  0.86389477     0.65200
H1058       H  0.91554567  0.25251267  0.82553530     0.10700
C1059       C  0.86538262  0.31772001  0.77229678     0.63600
H1060       H  0.90592863  0.37471784  0.81129131     0.08000
F1061       F  0.87438256  0.39721593  0.90139439    -0.19400
F1062       F  0.90453833  0.46161804  0.89449276    -0.15600
F1063       F  0.92018880  0.43671759  0.93051507    -0.19100
F1064       F  0.99064062  0.39887007  0.79815980    -0.22500
F1065       F  0.02215224  0.38174260  0.82873281    -0.24000
F1066       F  0.55000220  0.42792972  0.83187320    -0.18000
F1067       F  0.86777495  0.35484445  0.77124729    -0.20500
F1068       F  0.82579037  0.28920429  0.77422965    -0.21600
F1069       F  0.88103007  0.31160551  0.74831536    -0.18800
F1070       F  0.97614927  0.34238732  0.87964006    -0.18900
F1071       F  0.98310450  0.29732837  0.85368590    -0.22700
F1072       F  0.92943984  0.27791797  0.88054494    -0.24300
C1073       C  0.62095575  0.04201059  0.87407331    -0.11100
C1074       C  0.62731455  0.06984864  0.85426722     0.11400
C1075       C  0.59828091  0.08098935  0.84993305    -0.03000
C1076       C  0.56448517  0.06516856  0.86673071    -0.05700
C1077       C  0.55414839  0.03277416  0.88461201    -0.16500
C1078       C  0.58525511  0.02264685  0.88926671     0.02500
C1079       C  0.66340158  0.08444969  0.83687116     0.12400
C1080       C  0.60160409  0.10746174  0.82633576     0.63000
H1081       H  0.54572128  0.07826355  0.86488632     0.12400
C1082       C  0.58230547  0.49616321  0.90935598     0.55200
H1083       H  0.64447104  0.03490116  0.87691067     0.08200
C1084       C  0.69865389  0.12082452  0.84241875    -0.05600
C1085       C  0.73014585  0.13387774  0.82353799    -0.06300
C1086       C  0.72832355  0.11042704  0.80059701    -0.15900
C1087       C  0.69389092  0.07295149  0.79592073    -0.01500
C1088       C  0.66177358  0.06078449  0.81412846    -0.09000
C1089       C  0.70398380  0.14443371  0.86884861     0.65200
H1090       H  0.75697534  0.16215999  0.82685338     0.10700
C1091       C  0.69056448  0.04649324  0.77140430     0.63600
H1092       H  0.63477148  0.03270781  0.81066834     0.08000
F1093       F  0.58412373  0.00707011  0.93606767    -0.19400
F1094       F  0.61444133  0.48964108  0.90702995    -0.15600
F1095       F  0.54913870  0.45924611  0.90602839    -0.19100
F1096       F  0.60333335  0.08927491  0.80204159    -0.22500
F1097       F  0.63537663  0.14429986  0.82869913    -0.24000
F1098       F  0.56934772  0.11375640  0.82508732    -0.18000
F1099       F  0.65350754  0.01275786  0.76971976    -0.20500
F1100       F  0.71848573  0.03407967  0.77327382    -0.21600
F1101       F  0.69681846  0.06746325  0.74772737    -0.18800
F1102       F  0.73950243  0.18009644  0.86923252    -0.18900
F1103       F  0.70389087  0.12195006  0.89036779    -0.22700
F1104       F  0.67371331  0.15335815  0.87266523    -0.24300
C1105       C  0.95026244  0.12215565  0.82903331    -0.11100
C1106       C  0.92472446  0.08466479  0.83978818     0.11400
C1107       C  0.88366403  0.06614015  0.83407197    -0.03000
C1108       C  0.87000015  0.08459667  0.81596342    -0.05700
C1109       C  0.89589081  0.12104335  0.80357854    -0.16500
C1110       C  0.93693937  0.14056063  0.81060589     0.02500
C1111       C  0.94243217  0.06376182  0.85463827     0.12400
C1112       C  0.85446921  0.02703747  0.84710324     0.63000
H1113       H  0.83874106  0.07025720  0.81106113     0.12400
C1114       C  0.96734181  0.17941062  0.79781646     0.55200
H1115       H  0.98138501  0.13598356  0.83427056     0.08200
C1116       C  0.95866150  0.04274750  0.84051678    -0.05600
C1117       C  0.97286043  0.02176916  0.85546633    -0.06300
C1118       C  0.97536278  0.02327894  0.88451371    -0.15900
C1119       C  0.95478645  0.04183764  0.89853009    -0.01500
C1120       C  0.94143466  0.06358843  0.88305175    -0.09000
C1121       C  0.96283375  0.04407121  0.80961748     0.65200
H1122       H  0.49020798  0.00829041  0.84456107     0.10700
C1123       C  0.94157636  0.03868609  0.92834210     0.63600
H1124       H  0.92811333  0.07953711  0.89332431     0.08000
F1125       F  0.96604501  0.17489110  0.76974478    -0.19400
F1126       F  0.00562654  0.19075052  0.80591796    -0.15600
F1127       F  0.95961031  0.20986594  0.80548350    -0.19100
F1128       F  0.85384161  0.03297905  0.87496142    -0.22500
F1129       F  0.86550058  0.99826464  0.84179362    -0.24000
F1130       F  0.81633384  0.01258067  0.83738644    -0.18000
F1131       F  0.96445564  0.07471456  0.94194778    -0.20500
F1132       F  0.94628715  0.50677744  0.94319581    -0.21600
F1133       F  0.90650420  0.52956219  0.93288947    -0.18800
F1134       F  0.47118739  0.01316980  0.80095539    -0.18900
F1135       F  0.48287149  0.07614706  0.79986950    -0.22700
F1136       F  0.92613152  0.03001871  0.79765212    -0.24300
C1137       C  0.88061989  0.31686862  0.65594124    -0.11100
C1138       C  0.92035039  0.33334247  0.64794441     0.11400
C1139       C  0.94267418  0.31527115  0.65620567    -0.03000
C1140       C  0.92530914  0.28324243  0.67416721    -0.05700
C1141       C  0.88662004  0.26889630  0.68429578    -0.16500
C1142       C  0.86285799  0.28433199  0.67359344     0.02500
C1143       C  0.93960389  0.37363433  0.63581766     0.12400
C1144       C  0.98580859  0.33177009  0.64815495     0.63000
H1145       H  0.94306388  0.27095649  0.68184624     0.12400
C1146       C  0.81896146  0.26675411  0.68008757     0.55200
H1147       H  0.86415339  0.33118715  0.64930855     0.08200
C1148       C  0.94024723  0.38030395  0.60774325    -0.05600
C1149       C  0.96235923  0.41983448  0.59850988    -0.06300
C1150       C  0.98284454  0.45341220  0.61642650    -0.15900
C1151       C  0.97495150  0.44599787  0.64534502    -0.01500
C1152       C  0.95517432  0.40614800  0.65397025    -0.09000
C1153       C  0.91675011  0.34592641  0.58783109     0.65200
H1154       H  0.96335158  0.42418459  0.57692710     0.10700
C1155       C  0.98452356  0.47782232  0.66798009     0.63600
H1156       H  0.95082412  0.39951274  0.67544582     0.08000
F1157       F  0.80102566  0.28207531  0.66370908    -0.19400
F1158       F  0.81365594  0.27535819  0.70683299    -0.15600
F1159       F  0.79989400  0.22584212  0.67556988    -0.19100
F1160       F  0.00840229  0.36769168  0.66173552    -0.22500
F1161       F  0.99051847  0.33748559  0.62041241    -0.24000
F1162       F  0.99994809  0.30622012  0.65481526    -0.18000
F1163       F  0.95893201  0.49307944  0.66634153    -0.20500
F1164       F  0.52477708  0.00866455  0.66790202    -0.21600
F1165       F  0.47897518  0.46608262  0.69744068    -0.18800
F1166       F  0.92169823  0.35853789  0.56121394    -0.18900
F1167       F  0.87684982  0.32855047  0.59419335    -0.22700
F1168       F  0.92853843  0.31739523  0.58931379    -0.24300
C1169       C  0.70100908  0.08740767  0.64496388    -0.11100
C1170       C  0.66818447  0.09235920  0.65164496     0.11400
C1171       C  0.66836941  0.11288560  0.67609362    -0.03000
C1172       C  0.70146615  0.12744681  0.69326929    -0.05700
C1173       C  0.73302387  0.12021131  0.68744802    -0.16500
C1174       C  0.73359696  0.10091071  0.66266488     0.02500
C1175       C  0.63078629  0.06730323  0.63662824     0.12400
C1176       C  0.63273778  0.11713079  0.68485206     0.63000
H1177       H  0.70199044  0.14270358  0.71228505     0.12400
C1178       C  0.76814294  0.09424176  0.65521077     0.55200
H1179       H  0.69972035  0.07060010  0.62655630     0.08200
C1180       C  0.61884873  0.07943333  0.61349047    -0.05600
C1181       C  0.58036007  0.05426563  0.60326691    -0.06300
C1182       C  0.55446744  0.01571453  0.61392367    -0.15900
C1183       C  0.57314666  0.00060631  0.63196034    -0.01500
C1184       C  0.60825504  0.02820519  0.64511115    -0.09000
C1185       C  0.64639873  0.11840041  0.59971344     0.65200
H1186       H  0.56944774  0.06606332  0.58795075     0.10700
C1187       C  0.55918263  0.45537620  0.64288223     0.63600
H1188       H  0.62009760  0.01825368  0.66121453     0.08000
F1189       F  0.76523459  0.07974063  0.62873150    -0.19400
F1190       F  0.76891954  0.06682990  0.67249932    -0.15600
F1191       F  0.80340674  0.12992353  0.65752430    -0.19100
F1192       F  0.60041724  0.07979502  0.68894403    -0.22500
F1193       F  0.62365056  0.13603932  0.66499896    -0.24000
F1194       F  0.63974216  0.13938203  0.70883005    -0.18000
F1195       F  0.59155046  0.44920641  0.64034245    -0.20500
F1196       F  0.53072638  0.42693475  0.62641614    -0.21600
F1197       F  0.54671929  0.44938174  0.66969831    -0.18800
F1198       F  0.63088769  0.12170566  0.57531869    -0.18900
F1199       F  0.68237305  0.12015843  0.59413701    -0.22700
F1200       F  0.65283595  0.15053513  0.61639653    -0.24300
C1201       C  0.92163769  0.06440586  0.68186706    -0.11100
C1202       C  0.93563303  0.08114108  0.65632704     0.11400
C1203       C  0.92783606  0.11124035  0.64712633    -0.03000
C1204       C  0.90738771  0.12488684  0.66458959    -0.05700
C1205       C  0.89430727  0.10873133  0.69046896    -0.16500
C1206       C  0.90114722  0.07780216  0.69921479     0.02500
C1207       C  0.95781073  0.06544646  0.63986226     0.12400
C1208       C  0.94192844  0.12920682  0.61931400     0.63000
H1209       H  0.90205559  0.14870961  0.65840035     0.12400
C1210       C  0.88819376  0.06015695  0.72723168     0.55200
H1211       H  0.92765945  0.04113754  0.68829742     0.08200
C1212       C  0.99846965  0.07890242  0.64358712    -0.05600
C1213       C  0.01503417  0.05643811  0.63202252    -0.06300
C1214       C  0.99291398  0.02024319  0.61656668    -0.15900
C1215       C  0.95149517  0.00849690  0.61171124    -0.01500
C1216       C  0.93553635  0.03138149  0.62379674    -0.09000
C1217       C  0.02577533  0.11594654  0.66044936     0.65200
H1218       H  0.54145052  0.06624787  0.63826738     0.10700
C1219       C  0.92099385  0.97020823  0.59689773     0.63600
H1220       H  0.90411984  0.02139335  0.62223704     0.08000
F1221       F  0.90769973  0.08966533  0.74686014    -0.19400
F1222       F  0.89685049  0.02975632  0.73148238    -0.15600
F1223       F  0.84770407  0.04461382  0.73020965    -0.19100
F1224       F  0.92617049  0.09943810  0.59935608    -0.22500
F1225       F  0.98285546  0.14773298  0.61803030    -0.24000
F1226       F  0.93045461  0.15727163  0.61389933    -0.18000
F1227       F  0.90425059  0.44127292  0.60993977    -0.20500
F1228       F  0.93577415  0.46721129  0.57032039    -0.21600
F1229       F  0.88794893  0.97272758  0.58928445    -0.18800
F1230       F  0.55290987  0.13592184  0.65572932    -0.18900
F1231       F  0.03948611  0.10471332  0.68252790    -0.22700
F1232       F  0.00779101  0.13730224  0.67013181    -0.24300
C1233       C  0.97027208  0.48929852  0.47567083    -0.11100
C1234       C  0.50154197  0.00149477  0.48392379     0.11400
C1235       C  0.53335176  0.01967433  0.46540659    -0.03000
C1236       C  0.52495024  0.01911805  0.43751583    -0.05700
C1237       C  0.99093116  0.00320320  0.42756514    -0.16500
C1238       C  0.95953065  0.49151220  0.44875695     0.02500
C1239       C  0.50691822  0.00272371  0.51411014     0.12400
C1240       C  0.57610237  0.03900064  0.47494012     0.63000
H1241       H  0.54956574  0.03122690  0.42334512     0.12400
C1242       C  0.91640499  0.48329193  0.44717578     0.55200
H1243       H  0.94769542  0.47743808  0.49144092     0.08200
C1244       C  0.00426944  0.02705701  0.53182486    -0.05600
C1245       C  0.00794984  0.02526279  0.56007189    -0.06300
C1246       C  0.01590972  0.99687802  0.57281916    -0.15900
C1247       C  0.52521585  0.47297928  0.55656187    -0.01500
C1248       C  0.52002998  0.47351104  0.52808165    -0.09000
C1249       C  0.99154116  0.05569682  0.52069077     0.65200
H1250       H  0.00407827  0.04684847  0.57216927     0.10700
C1251       C  0.54653807  0.45033400  0.56510573     0.63600
H1252       H  0.52441041  0.45335991  0.51443179     0.08000
F1253       F  0.90913642  0.50232222  0.42666777    -0.19400
F1254       F  0.90645467  0.49721789  0.47072969    -0.15600
F1255       F  0.89079812  0.44258900  0.44526193    -0.19100
F1256       F  0.58375395  0.01022415  0.48503676    -0.22500
F1257       F  0.58281902  0.06735950  0.49517922    -0.24000
F1258       F  0.60265765  0.05775668  0.45396829    -0.18000
F1259       F  0.02248031  0.41668036  0.57231788    -0.20500
F1260       F  0.57733784  0.47323296  0.58253086    -0.21600
F1261       F  0.56365383  0.44134068  0.54295262    -0.18800
F1262       F  0.99262728  0.08276415  0.54036012    -0.18900
F1263       F  0.95307346  0.03430379  0.51125661    -0.22700
F1264       F  0.51725490  0.08128742  0.50080992    -0.24300
C1265       C  0.01779967  0.03751838  0.97376121    -0.11100
C1266       C  0.51198395  0.00631311  0.98666243     0.11400
C1267       C  0.50197270  0.47418139  0.97019510    -0.03000
C1268       C  0.50178194  0.47679600  0.94174446    -0.05700
C1269       C  0.51431940  0.51314579  0.92801207    -0.16500
C1270       C  0.02241376  0.04161653  0.94515367     0.02500
C1271       C  0.50772698  0.00489440  0.01713552     0.12400
C1272       C  0.48860614  0.43377354  0.98291924     0.63000
H1273       H  0.49100644  0.44924392  0.93028104     0.12400
C1274       C  0.04886324  0.08402656  0.93500143     0.55200
H1275       H  0.02698959  0.06356215  0.98697292     0.08200
C1276       C  0.53991016  0.01581709  0.03481654    -0.05600
C1277       C  0.53255297  0.00988122  0.06297355    -0.06300
C1278       C  0.49590297  0.49583901  0.07447483    -0.15900
C1279       C  0.95882495  0.47608320  0.05420530    -0.01500
C1280       C  0.96680528  0.48456728  0.02621935    -0.09000
C1281       C  0.58223507  0.03479958  0.02419015     0.65200
H1282       H  0.55797305  0.02096276  0.07621172     0.10700
C1283       C  0.91389404  0.45014157  0.05933872     0.63600
H1284       H  0.94247352  0.47607967  0.01213204     0.08000
F1285       F  0.08476697  0.08817116  0.92624653    -0.19400
F1286       F  0.06289776  0.61361703  0.95272384    -0.15600
F1287       F  0.03157620  0.09327590  0.91423550    -0.19100
F1288       F  0.45346786  0.42160671  0.99693616    -0.22500
F1289       F  0.51271935  0.93418971  0.00348053    -0.24000
F1290       F  0.48244617  0.40441567  0.96353827    -0.18000
F1291       F  0.89618047  0.47382606  0.05928263    -0.20500
F1292       F  0.90288439  0.42800912  0.08236597    -0.21600
F1293       F  0.89697637  0.42199353  0.03836867    -0.18800
F1294       F  0.60854312  0.03768274  0.04407650    -0.18900
F1295       F  0.59376914  0.07289644  0.01549427    -0.22700
F1296       F  0.58497050  0.01223965  0.00268177    -0.24300
C1297       C  0.59639871  0.43151697  0.34285969    -0.11100
C1298       C  0.55553172  0.40727109  0.34698508     0.11400
C1299       C  0.53604745  0.36841243  0.33488654    -0.03000
C1300       C  0.55818979  0.35575627  0.31834910    -0.05700
C1301       C  0.59885032  0.38078565  0.31285835    -0.16500
C1302       C  0.61863631  0.41907496  0.32620977     0.02500
C1303       C  0.53344483  0.42584162  0.36068014     0.12400
C1304       C  0.49176036  0.34079656  0.33863417     0.63000
H1305       H  0.54313656  0.32657563  0.30841718     0.12400
C1306       C  0.66283325  0.44731285  0.32297909     0.55200
H1307       H  0.61051509  0.46132211  0.35194469     0.09400
C1308       C  0.53114305  0.42984099  0.38912268    -0.05600
C1309       C  0.51104716  0.44959657  0.39988865    -0.06300
C1310       C  0.49691110  0.47018565  0.38352164    -0.15900
C1311       C  0.49573752  0.46136687  0.35437380    -0.01500
C1312       C  0.51533727  0.44091559  0.34405676    -0.09000
C1313       C  0.55117705  0.41451904  0.40805430     0.65200
H1314       H  0.50680752  0.44863346  0.42156285     0.10700
C1315       C  0.97360512  0.47248332  0.33089955     0.63600
H1316       H  0.51666408  0.43594186  0.32235283     0.08000
F1317       F  0.67648600  0.47932177  0.34132487    -0.19400
F1318       F  0.67081249  0.46248452  0.29702595    -0.15600
F1319       F  0.68360018  0.42725297  0.32760119    -0.19100
F1320       F  0.96954936  0.35789778  0.32143843    -0.22500
F1321       F  0.48252599  0.33542923  0.36601985    -0.24000
F1322       F  0.47934564  0.30350243  0.32659403    -0.18000
F1323       F  0.48225689  0.46466831  0.30672642    -0.20500
F1324       F  0.98287741  0.51164536  0.33275217    -0.21600
F1325       F  0.93340697  0.44804683  0.33413596    -0.18800
F1326       F  0.54396356  0.41939347  0.43520684    -0.18900
F1327       F  0.59172602  0.43532030  0.40388485    -0.22700
F1328       F  0.53767131  0.37433952  0.40295500    -0.24300
C1329       C  0.88270132  0.47594189  0.36104945    -0.11100
C1330       C  0.86228931  0.43520152  0.36576597     0.11400
C1331       C  0.87859330  0.41843963  0.38286461    -0.03000
C1332       C  0.91716941  0.44295365  0.39270152    -0.05700
C1333       C  0.94064153  0.48428485  0.38656281    -0.16500
C1334       C  0.92069776  0.50169029  0.37172493     0.02500
C1335       C  0.82565391  0.41110340  0.34991896     0.12400
C1336       C  0.85520021  0.37488833  0.39067221     0.63000
H1337       H  0.92998761  0.42936264  0.40511366     0.12400
C1338       C  0.93907867  0.04304769  0.36371499     0.55200
H1339       H  0.86809221  0.48711077  0.34809278     0.08200
C1340       C  0.79119152  0.41458643  0.35401029    -0.05600
C1341       C  0.76213013  0.39994147  0.33361998    -0.06300
C1342       C  0.76605673  0.38139312  0.30961724    -0.15900
C1343       C  0.80007765  0.37634613  0.30613319    -0.01500
C1344       C  0.82933624  0.39178775  0.32639493    -0.09000
C1345       C  0.78412188  0.43440468  0.37900839     0.65200
H1346       H  0.73602756  0.40321080  0.33653743     0.10700
C1347       C  0.80695679  0.35637322  0.28096341     0.63600
H1348       H  0.85653455  0.39054557  0.32351420     0.08000
F1349       F  0.91320473  0.04904997  0.34786385    -0.19400
F1350       F  0.97398474  0.05933836  0.34981340    -0.15600
F1351       F  0.94247878  0.06348804  0.38779341    -0.19100
F1352       F  0.84766672  0.35036454  0.36786141    -0.22500
F1353       F  0.81957316  0.36757896  0.40238157    -0.24000
F1354       F  0.87541993  0.36503461  0.40922472    -0.18000
F1355       F  0.84407055  0.35922067  0.28095419    -0.20500
F1356       F  0.80439969  0.37439813  0.25770139    -0.21600
F1357       F  0.77908877  0.31617729  0.28005476    -0.18800
F1358       F  0.74742012  0.40873160  0.39002338    -0.18900
F1359       F  0.78441786  0.46898203  0.37144414    -0.22700
F1360       F  0.81218448  0.44403411  0.39912413    -0.24300
C1361       C  0.53264295  0.11689251  0.37844782    -0.11100
C1362       C  0.55600308  0.11906591  0.35592808     0.11400
C1363       C  0.56457888  0.08785277  0.35100712    -0.03000
C1364       C  0.54418214  0.05278763  0.36612568    -0.05700
C1365       C  0.51278502  0.04579568  0.38471481    -0.16500
C1366       C  0.51323024  0.08214612  0.39444703     0.02500
C1367       C  0.57300063  0.15531305  0.33880898     0.12400
C1368       C  0.59583577  0.09191762  0.33019317     0.63000
H1369       H  0.55359098  0.03096077  0.36296677     0.12400
C1370       C  0.49959756  0.08860152  0.42262270     0.55200
H1371       H  0.53060957  0.14341083  0.38367674     0.08200
C1372       C  0.55227763  0.15793849  0.31612960    -0.05600
C1373       C  0.57100828  0.19128746  0.29957701    -0.06300
C1374       C  0.60917855  0.22281702  0.30516735    -0.15900
C1375       C  0.62937631  0.22139770  0.32868690    -0.01500
C1376       C  0.61082641  0.18725557  0.34505289    -0.09000
C1377       C  0.51024417  0.12609495  0.30947892     0.65200
H1378       H  0.55573073  0.19282127  0.28175824     0.10700
C1379       C  0.66960475  0.25583144  0.33696314     0.63600
H1380       H  0.62585369  0.18496381  0.36276470     0.08000
F1381       F  0.00905300  0.12732400  0.42727486    -0.19400
F1382       F  0.52632832  0.09127876  0.44195038    -0.15600
F1383       F  0.46252383  0.05884229  0.42925455    -0.19100
F1384       F  0.63268811  0.12153183  0.33890571    -0.22500
F1385       F  0.58777155  0.10191812  0.30516225    -0.24000
F1386       F  0.59737612  0.05679355  0.32662125    -0.18000
F1387       F  0.68091892  0.25046825  0.36241758    -0.20500
F1388       F  0.66821364  0.29119295  0.33796009    -0.21600
F1389       F  0.69819596  0.25892924  0.31841711    -0.18800
F1390       F  0.49602954  0.13435223  0.28622138    -0.18900
F1391       F  0.48569526  0.12409834  0.33082582    -0.22700
F1392       F  0.50877829  0.08967162  0.30521033    -0.24300
C1393       C  0.60809201  0.42035162  0.15566714    -0.11100
C1394       C  0.57637489  0.42578716  0.16442634     0.11400
C1395       C  0.55959953  0.41310154  0.19055995    -0.03000
C1396       C  0.57673142  0.39708279  0.20771782    -0.05700
C1397       C  0.60946836  0.39298918  0.19938430    -0.16500
C1398       C  0.62495544  0.40388257  0.17273091     0.02500
C1399       C  0.56136591  0.44501246  0.14577533     0.12400
C1400       C  0.52367163  0.41623499  0.20016875     0.63000
H1401       H  0.56485574  0.38786535  0.22799763     0.12400
C1402       C  0.65752588  0.39612745  0.16185810     0.55200
H1403       H  0.61962707  0.42936928  0.13530032     0.08200
C1404       C  0.57813147  0.48676535  0.14511078    -0.05600
C1405       C  0.55942033  0.50257542  0.12933760    -0.06300
C1406       C  0.52279462  0.47796142  0.11557101    -0.15900
C1407       C  0.51469266  0.43762580  0.10985801    -0.01500
C1408       C  0.53190590  0.42125828  0.12694623    -0.09000
C1409       C  0.61960090  0.01167003  0.15477186     0.65200
H1410       H  0.57196090  0.03082169  0.12735810     0.10700
C1411       C  0.98748274  0.40850569  0.08257748     0.63600
H1412       H  0.52303866  0.38978690  0.12554118     0.08000
F1413       F  0.69228581  0.41934537  0.17607012    -0.19400
F1414       F  0.66512792  0.40498968  0.13454171    -0.15600
F1415       F  0.64600834  0.35617293  0.16467361    -0.19100
F1416       F  0.49260290  0.39534069  0.18227852    -0.22500
F1417       F  0.53272889  0.45578510  0.20136490    -0.24000
F1418       F  0.51114378  0.40060080  0.22580496    -0.18000
F1419       F  0.98511311  0.37131894  0.08103295    -0.20500
F1420       F  0.00413287  0.42707439  0.05844396    -0.21600
F1421       F  0.94940345  0.40193840  0.08456541    -0.18800
F1422       F  0.63070377  0.05141289  0.15105188    -0.18900
F1423       F  0.64626090  0.50826940  0.15253029    -0.22700
F1424       F  0.60904855  0.50681953  0.18863216    -0.24300
C1425       C  0.80635868  0.38980921  0.15568317    -0.11100
C1426       C  0.84160773  0.42030463  0.16704440     0.11400
C1427       C  0.84066106  0.43635934  0.19315666    -0.03000
C1428       C  0.80453574  0.41996836  0.20746097    -0.05700
C1429       C  0.76948250  0.38789012  0.19681626    -0.16500
C1430       C  0.77006930  0.37334770  0.16993188     0.02500
C1431       C  0.87853860  0.43646128  0.15038457     0.12400
C1432       C  0.87780397  0.46989493  0.20625035     0.63000
H1433       H  0.80376961  0.43132178  0.22776595     0.12400
C1434       C  0.73398463  0.34218132  0.15447756     0.55200
H1435       H  0.80717033  0.37894902  0.13518289     0.08200
C1436       C  0.90142796  0.41721566  0.14788447    -0.05600
C1437       C  0.93690010  0.43554699  0.13278486    -0.06300
C1438       C  0.95073709  0.47227065  0.11900910    -0.15900
C1439       C  0.92488530  0.48979650  0.12042733    -0.01500
C1440       C  0.89019344  0.47166125  0.13648588    -0.09000
C1441       C  0.88887965  0.37778384  0.16175259     0.65200
H1442       H  0.95460423  0.42113630  0.13311456     0.10700
C1443       C  0.93260592  0.02888537  0.10954231     0.63600
H1444       H  0.87153945  0.48542255  0.13854695     0.08000
F1445       F  0.73841594  0.30906792  0.14893062    -0.19400
F1446       F  0.73132794  0.35780355  0.13004316    -0.15600
F1447       F  0.69874296  0.33020200  0.16821259    -0.19100
F1448       F  0.89325270  0.50334068  0.19029447    -0.22500
F1449       F  0.90564774  0.45760787  0.20911049    -0.24000
F1450       F  0.87026875  0.48082017  0.23182105    -0.18000
F1451       F  0.89783529  0.02938220  0.10402430    -0.20500
F1452       F  0.95265022  0.03569187  0.08520729    -0.21600
F1453       F  0.95414036  0.06002514  0.12770073    -0.18800
F1454       F  0.91523023  0.36370618  0.15676265    -0.18900
F1455       F  0.85219959  0.34898127  0.15224170    -0.22700
F1456       F  0.88666216  0.38259346  0.18960202    -0.24300
C1457       C  0.52857788  0.08545892  0.15894618    -0.11100
C1458       C  0.54571195  0.11793185  0.14190709     0.11400
C1459       C  0.54860478  0.11143462  0.11384231    -0.03000
C1460       C  0.53135364  0.07177577  0.10353594    -0.05700
C1461       C  0.51395239  0.03762586  0.12044280    -0.16500
C1462       C  0.51514354  0.04602762  0.14957106     0.02500
C1463       C  0.56580677  0.15805773  0.15546369     0.12400
C1464       C  0.56998089  0.14639599  0.09487484     0.63000
H1465       H  0.53084830  0.06829380  0.08180348     0.12400
C1466       C  0.50212910  0.01653050  0.17282519     0.55200
H1467       H  0.52767545  0.09158587  0.18059039     0.08200
C1468       C  0.54510814  0.17781611  0.16502670    -0.05600
C1469       C  0.56508503  0.21205252  0.18206336    -0.06300
C1470       C  0.60398609  0.22538130  0.19137648    -0.15900
C1471       C  0.62454009  0.20501950  0.18162803    -0.01500
C1472       C  0.60509593  0.17235925  0.16338444    -0.09000
C1473       C  0.50140530  0.16127157  0.15880587     0.65200
H1474       H  0.54927657  0.22703571  0.18972108     0.10700
C1475       C  0.66601174  0.21567803  0.19095759     0.63600
H1476       H  0.61954237  0.15562960  0.15645753     0.08000
F1477       F  0.46575580  0.01001398  0.18229064    -0.19400
F1478       F  0.52904879  0.03262905  0.19405534    -0.15600
F1479       F  0.49968124  0.98053604  0.16643630    -0.19100
F1480       F  0.60917040  0.16918463  0.10269333    -0.22500
F1481       F  0.55224739  0.17008170  0.09593004    -0.24000
F1482       F  0.56940782  0.13388639  0.06808952    -0.18000
F1483       F  0.66519814  0.20711309  0.21821434    -0.20500
F1484       F  0.69190302  0.25570572  0.18697563    -0.21600
F1485       F  0.68083765  0.19422209  0.17665417    -0.18800
F1486       F  0.48786877  0.18692765  0.16790907    -0.18900
F1487       F  0.47935778  0.12515205  0.17149971    -0.22700
F1488       F  0.49495879  0.15541134  0.13107363    -0.24300
O1489       O  0.60198932  0.82830173  0.28702021    -0.81100
C1490       C  0.73410236  0.86706828  0.21707506     0.98300
O1491       O  0.72876326  0.89022746  0.23325076    -0.70200
O1492       O  0.66253105  0.89127703  0.22575826    -0.73800
Al1493     Al  0.68658797  0.88389658  0.25702424     1.49000
C1494       C  0.62611324  0.87449419  0.22015838     0.93500
O1495       O  0.60389357  0.77803717  0.21937720    -0.80000
O1496       O  0.66133036  0.77372507  0.28277706    -0.73600
Al1497     Al  0.60662425  0.80489871  0.25332143     1.90100
O1498       O  0.64871554  0.76130103  0.22802798    -0.72600
O1499       O  0.72848017  0.83753043  0.27346924    -0.72500
O1500       O  0.71338046  0.82967091  0.21910661    -0.78100
O1501       O  0.71461495  0.88314191  0.28863499    -0.76300
O1502       O  0.65949581  0.83070721  0.25382268    -1.12500
O1503       O  0.64996256  0.88925974  0.28144378    -0.71700
C1504       C  0.61905831  0.86487455  0.29392435     0.99100
C1505       C  0.62031283  0.75727118  0.21375948     0.95400
Al1506     Al  0.68556975  0.80304787  0.25108081     1.55600
O1507       O  0.60154951  0.84359401  0.23250041    -0.76300
C1508       C  0.73490581  0.86554709  0.28994310     0.99600
C1509       C  0.62462395  0.75390562  0.28726277     0.94500
O1510       O  0.60070464  0.76071854  0.27414949    -0.81600
C1511       C  0.49572206  0.49680969  0.10698705    -0.01800
C1512       C  0.98542129  0.50267828  0.39526110    -0.01800
O1513       O  0.89618216  0.67301618  0.78035642    -0.81100
C1514       C  0.76684456  0.63252970  0.70965536     0.98300
O1515       O  0.77406994  0.60812882  0.72166673    -0.70200
O1516       O  0.84157210  0.60904671  0.71597237    -0.73800
Al1517     Al  0.81408308  0.61419535  0.74688189     1.49000
C1518       C  0.87847820  0.62509803  0.71318395     0.93500
O1519       O  0.89426189  0.71770877  0.71267145    -0.80000
O1520       O  0.83976678  0.72556203  0.77917181    -0.73600
Al1521     Al  0.89296333  0.69433462  0.74663683     1.90100
O1522       O  0.84972616  0.73552183  0.72315858    -0.72600
O1523       O  0.77155896  0.66044667  0.77069934    -0.72500
O1524       O  0.78419192  0.66900167  0.71619826    -0.78100
O1525       O  0.78143874  0.60989427  0.77732789    -0.76300
O1526       O  0.83988113  0.66760429  0.74706231    -1.12500
O1527       O  0.84991016  0.61087754  0.77243492    -0.71700
C1528       C  0.87955497  0.63645827  0.78616956     0.99100
C1529       C  0.87723021  0.73780516  0.70775048     0.95400
Al1530     Al  0.81366107  0.69516585  0.74737750     1.55600
O1531       O  0.90107801  0.65576031  0.72690616    -0.76300
C1532       C  0.76241982  0.62816960  0.78224886     0.99600
C1533       C  0.87673065  0.74734908  0.78112693     0.94500
O1534       O  0.89979494  0.74060121  0.76644876    -0.81600
C1535       C  0.50963577  0.00830499  0.89616081    -0.01800
C1536       C  0.01132647  0.49572972  0.60453841    -0.01800
C1537       C  0.92722923  0.89326387  0.87063755    -0.11100
C1538       C  0.95107987  0.88596450  0.85259116     0.11400
C1539       C  0.99043184  0.91573505  0.84850803    -0.03000
C1540       C  0.00444969  0.95254315  0.86248612    -0.05700
C1541       C  0.98190540  0.96118773  0.88226370    -0.16500
C1542       C  0.94061693  0.92987273  0.88529089     0.02500
C1543       C  0.93179726  0.84926810  0.83506209     0.12400
C1544       C  0.01747652  0.90926018  0.82857758     0.63000
H1545       H  0.53609063  0.97697779  0.85402261     0.12400
C1546       C  0.90805993  0.93299044  0.90174113     0.55200
H1547       H  0.89673573  0.86978215  0.87193488     0.08200
C1548       C  0.92176036  0.81085431  0.84446697    -0.05600
C1549       C  0.90263887  0.77773501  0.82642158    -0.06300
C1550       C  0.89375169  0.78235607  0.79966970    -0.15900
C1551       C  0.90393126  0.82068695  0.79029715    -0.01500
C1552       C  0.92194307  0.85347597  0.80847559    -0.09000
C1553       C  0.93146878  0.80500326  0.87322472     0.65200
H1554       H  0.89491720  0.74803484  0.83289425     0.10700
C1555       C  0.89639166  0.82687384  0.76105912     0.63600
H1556       H  0.92907582  0.88299840  0.80197614     0.08000
F1557       F  0.87172745  0.89826714  0.90011116    -0.19400
F1558       F  0.90158646  0.96245780  0.89188968    -0.15600
F1559       F  0.91679805  0.93920621  0.92897014    -0.19100
F1560       F  0.00532158  0.90848357  0.80215600    -0.22500
F1561       F  0.01628785  0.87341637  0.83358176    -0.24000
F1562       F  0.55526136  0.94180574  0.82436596    -0.18000
F1563       F  0.90846302  0.86655625  0.75615225    -0.20500
F1564       F  0.85632073  0.80461042  0.75543692    -0.21600
F1565       F  0.91718536  0.81493564  0.74358123    -0.18800
F1566       F  0.92172193  0.76571468  0.87745856    -0.18900
F1567       F  0.91048387  0.81515675  0.89179812    -0.22700
F1568       F  0.97160471  0.82886738  0.87803599    -0.24300
C1569       C  0.61893415  0.54454506  0.87284502    -0.11100
C1570       C  0.62461544  0.57133145  0.85248435     0.11400
C1571       C  0.59512995  0.58172353  0.84780721    -0.03000
C1572       C  0.56197473  0.56696421  0.86522838    -0.05700
C1573       C  0.55238425  0.53564188  0.88391314    -0.16500
C1574       C  0.58364404  0.52561972  0.88841897     0.02500
C1575       C  0.66107782  0.58618599  0.83544206     0.12400
C1576       C  0.59725992  0.60604776  0.82323880     0.63000
H1577       H  0.54311490  0.57994095  0.86321163     0.12400
C1578       C  0.58311945  0.99248476  0.90992911     0.55200
H1579       H  0.64277474  0.53794263  0.87584503     0.08200
C1580       C  0.69621477  0.62233823  0.84162021    -0.05600
C1581       C  0.72879351  0.63513978  0.82368461    -0.06300
C1582       C  0.72818899  0.61146052  0.80121454    -0.15900
C1583       C  0.69402093  0.57376561  0.79628602    -0.01500
C1584       C  0.66073342  0.56209436  0.81335674    -0.09000
C1585       C  0.69988489  0.64617121  0.86766317     0.65200
H1586       H  0.75542420  0.66347059  0.82735005     0.10700
C1587       C  0.69222080  0.54638926  0.77276403     0.63600
H1588       H  0.63394260  0.53391996  0.80964710     0.08000
F1589       F  0.58372102  0.51122512  0.93540089    -0.19400
F1590       F  0.61500469  0.98556740  0.90759408    -0.15600
F1591       F  0.54976825  0.95578153  0.90636570    -0.19100
F1592       F  0.59816337  0.58591563  0.79967322    -0.22500
F1593       F  0.63097626  0.64307950  0.82419834    -0.24000
F1594       F  0.56472568  0.61186867  0.82176403    -0.18000
F1595       F  0.65572721  0.51189577  0.77120623    -0.20500
F1596       F  0.72081403  0.53517343  0.77610694    -0.21600
F1597       F  0.69864970  0.56596548  0.74845675    -0.18800
F1598       F  0.73664517  0.68023589  0.86973526    -0.18900
F1599       F  0.69510600  0.62280317  0.88984388    -0.22700
F1600       F  0.67126506  0.65776987  0.86869824    -0.24300
C1601       C  0.94878737  0.62265865  0.83439692    -0.11100
C1602       C  0.92294924  0.58457939  0.84416880     0.11400
C1603       C  0.88188242  0.56702397  0.83888413    -0.03000
C1604       C  0.86882275  0.58580639  0.82063641    -0.05700
C1605       C  0.89519990  0.62238561  0.80859371    -0.16500
C1606       C  0.93570927  0.64243148  0.81698265     0.02500
C1607       C  0.94042341  0.56245386  0.85762137     0.12400
C1608       C  0.85213826  0.52873947  0.85252979     0.63000
H1609       H  0.83771307  0.57160361  0.81531900     0.12400
C1610       C  0.96566024  0.68375932  0.80724893     0.55200
H1611       H  0.97986177  0.63598870  0.83966386     0.08200
C1612       C  0.95448811  0.54050776  0.84224814    -0.05600
C1613       C  0.97156319  0.52105609  0.85588816    -0.06300
C1614       C  0.97677201  0.52301127  0.88470929    -0.15900
C1615       C  0.95697842  0.54124638  0.90015640    -0.01500
C1616       C  0.94254312  0.56312157  0.88595443    -0.09000
C1617       C  0.95305737  0.53905379  0.81125742     0.65200
H1618       H  0.48543584  0.51037693  0.84521669     0.10700
C1619       C  0.94539713  0.53738212  0.93033669     0.63600
H1620       H  0.93053066  0.57950429  0.89724431     0.08000
F1621       F  0.96928419  0.68315832  0.77921821    -0.19400
F1622       F  0.00292261  0.69695660  0.81822084    -0.15600
F1623       F  0.95355247  0.71099533  0.81514051    -0.19100
F1624       F  0.85396214  0.53506669  0.88045223    -0.22500
F1625       F  0.86054251  0.49833264  0.84631133    -0.24000
F1626       F  0.81367377  0.51640824  0.84433810    -0.18000
F1627       F  0.96928187  0.57293346  0.94416527    -0.20500
F1628       F  0.94218876  0.00878444  0.94233888    -0.21600
F1629       F  0.90247171  0.03048830  0.92950012    -0.18800
F1630       F  0.46253910  0.51322386  0.80239978    -0.18900
F1631       F  0.47327955  0.57597591  0.80062323    -0.22700
F1632       F  0.91441614  0.52395346  0.80254567    -0.24300
C1633       C  0.88701409  0.81344748  0.65496046    -0.11100
C1634       C  0.92804150  0.83314886  0.65048893     0.11400
C1635       C  0.95106648  0.81753213  0.66160780    -0.03000
C1636       C  0.93270623  0.78487612  0.67898539    -0.05700
C1637       C  0.89215526  0.76705436  0.68533578    -0.16500
C1638       C  0.86830081  0.77987072  0.67165245     0.02500
C1639       C  0.94663451  0.87333297  0.63814755     0.12400
C1640       C  0.99554336  0.83731372  0.65753373     0.63000
H1641       H  0.95074382  0.77479796  0.68917867     0.12400
C1642       C  0.82339799  0.75831004  0.67405309     0.55200
H1643       H  0.86991279  0.82584811  0.64631526     0.08200
C1644       C  0.94716785  0.87940846  0.60997429    -0.05600
C1645       C  0.96706808  0.91886914  0.60048755    -0.06300
C1646       C  0.98686136  0.95295379  0.61804616    -0.15900
C1647       C  0.98010416  0.94589276  0.64707636    -0.01500
C1648       C  0.96158737  0.90617577  0.65603102    -0.09000
C1649       C  0.92696833  0.84430256  0.59003123     0.65200
H1650       H  0.96701659  0.92270408  0.57892074     0.10700
C1651       C  0.98909616  0.97788213  0.66949502     0.63600
H1652       H  0.95760322  0.89988574  0.67756048     0.08000
F1653       F  0.80641920  0.77090326  0.65476318    -0.19400
F1654       F  0.81207115  0.76553883  0.69946298    -0.15600
F1655       F  0.80861819  0.71769515  0.66989133    -0.19100
F1656       F  0.01374674  0.87042536  0.67468722    -0.22500
F1657       F  0.00546557  0.84867284  0.63083584    -0.24000
F1658       F  0.00988759  0.81165506  0.66341846    -0.18000
F1659       F  0.96243006  0.99184310  0.66794817    -0.20500
F1660       F  0.52279708  0.51050992  0.66983559    -0.21600
F1661       F  0.48457947  0.96140506  0.69521141    -0.18800
F1662       F  0.93271895  0.85640085  0.56326208    -0.18900
F1663       F  0.88661703  0.82409108  0.59503845    -0.22700
F1664       F  0.94188445  0.81843881  0.59294500    -0.24300
C1665       C  0.70123915  0.58324065  0.64796332    -0.11100
C1666       C  0.66856280  0.58823124  0.65500009     0.11400
C1667       C  0.66933049  0.60945854  0.67921512    -0.03000
C1668       C  0.70313794  0.62504986  0.69572955    -0.05700
C1669       C  0.73481204  0.61817413  0.68949226    -0.16500
C1670       C  0.73457948  0.59778564  0.66503623     0.02500
C1671       C  0.63113404  0.56381712  0.64000367     0.12400
C1672       C  0.63368216  0.61343785  0.68845661     0.63000
H1673       H  0.70419775  0.64087701  0.71459220     0.12400
C1674       C  0.76929569  0.59161397  0.65709510     0.55200
H1675       H  0.69946406  0.56603302  0.62966150     0.08200
C1676       C  0.62010591  0.57651351  0.61677691    -0.05600
C1677       C  0.58182686  0.55196550  0.60608288    -0.06300
C1678       C  0.55466147  0.51386931  0.61688555    -0.15900
C1679       C  0.57185763  0.49831839  0.63581863    -0.01500
C1680       C  0.60732751  0.52521321  0.64888688    -0.09000
C1681       C  0.64867435  0.61550504  0.60341441     0.65200
H1682       H  0.57209642  0.56402119  0.59023431     0.10700
C1683       C  0.56268792  0.95770212  0.63765443     0.63600
H1684       H  0.61828004  0.51505610  0.66542299     0.08000
F1685       F  0.76433130  0.57384854  0.63147139    -0.19400
F1686       F  0.77311461  0.56722645  0.67558490    -0.15600
F1687       F  0.80382923  0.62811438  0.65684759    -0.19100
F1688       F  0.60213103  0.57614009  0.69393370    -0.22500
F1689       F  0.62275382  0.63054217  0.66837039    -0.24000
F1690       F  0.64168753  0.63714279  0.71181911    -0.18000
F1691       F  0.59618464  0.95376210  0.63367307    -0.20500
F1692       F  0.53436393  0.92915033  0.62111478    -0.21600
F1693       F  0.55121372  0.94962934  0.66456119    -0.18800
F1694       F  0.63206344  0.62252944  0.58090820    -0.18900
F1695       F  0.68215495  0.61393848  0.59492911    -0.22700
F1696       F  0.65982324  0.64724931  0.62162426    -0.24300
C1697       C  0.93169682  0.57147013  0.68509711    -0.11100
C1698       C  0.93565587  0.58158763  0.65755549     0.11400
C1699       C  0.91933819  0.60493837  0.64802151    -0.03000
C1700       C  0.89917290  0.61727996  0.66665803    -0.05700
C1701       C  0.89604990  0.60776612  0.69425318    -0.16500
C1702       C  0.91264156  0.58477506  0.70380535     0.02500
C1703       C  0.95717186  0.56676531  0.63959821     0.12400
C1704       C  0.92500044  0.61836058  0.61874566     0.63000
H1705       H  0.88680290  0.63556792  0.66005879     0.12400
C1706       C  0.91044617  0.57472918  0.73369286     0.55200
H1707       H  0.94440273  0.55357527  0.69188590     0.08200
C1708       C  0.99792845  0.58029959  0.64257546    -0.05600
C1709       C  0.01392474  0.55730156  0.63115548    -0.06300
C1710       C  0.99151897  0.52162036  0.61525009    -0.15900
C1711       C  0.95051536  0.51101765  0.61000642    -0.01500
C1712       C  0.93455056  0.53305249  0.62331864    -0.09000
C1713       C  0.02543767  0.61760661  0.65909200     0.65200
H1714       H  0.54234716  0.56709705  0.63816008     0.10700
C1715       C  0.92014166  0.47443999  0.59370997     0.63600
H1716       H  0.90296686  0.52253451  0.62244453     0.08000
F1717       F  0.93032488  0.60950630  0.74918199    -0.19400
F1718       F  0.92752890  0.55115137  0.73858625    -0.15600
F1719       F  0.87123875  0.55426585  0.74195379    -0.19100
F1720       F  0.90769762  0.58557574  0.60118169    -0.22500
F1721       F  0.96508679  0.64025633  0.61298196    -0.24000
F1722       F  0.90805331  0.64212068  0.61402824    -0.18000
F1723       F  0.90788413  0.93828389  0.61409513    -0.20500
F1724       F  0.93552559  0.96238061  0.57319483    -0.21600
F1725       F  0.88894243  0.47959194  0.58525585    -0.18800
F1726       F  0.55890476  0.63909666  0.64600789    -0.18900
F1727       F  0.03528537  0.60648397  0.68303487    -0.22700
F1728       F  0.00888347  0.64161881  0.66542799    -0.24300
C1729       C  0.96739107  0.98308506  0.47446868    -0.11100
C1730       C  0.50409294  0.49809996  0.48623394     0.11400
C1731       C  0.53547543  0.51588409  0.46744044    -0.03000
C1732       C  0.52645234  0.51604125  0.43976717    -0.05700
C1733       C  0.98992585  0.50373717  0.42750821    -0.16500
C1734       C  0.95876276  0.98796012  0.44751792     0.02500
C1735       C  0.51016739  0.50007513  0.51625230     0.12400
C1736       C  0.57832500  0.53363259  0.47644959     0.63000
H1737       H  0.55067028  0.52764541  0.42527125     0.12400
C1738       C  0.91572859  0.97957526  0.44482476     0.55200
H1739       H  0.94339795  0.96874286  0.48906242     0.08200
C1740       C  0.01250681  0.53441200  0.53107774    -0.05600
C1741       C  0.01105114  0.52918497  0.55931422    -0.06300
C1742       C  0.01530771  0.49831628  0.57192899    -0.15900
C1743       C  0.52483625  0.97681314  0.55369679    -0.01500
C1744       C  0.51874568  0.97740856  0.52538388    -0.09000
C1745       C  0.00859593  0.56891244  0.51988510     0.65200
H1746       H  0.00707873  0.55068816  0.57147494     0.10700
C1747       C  0.54800334  0.95550026  0.56106601     0.63600
H1748       H  0.52401157  0.95825170  0.51133379     0.08000
F1749       F  0.90870685  0.99749475  0.42347090    -0.19400
F1750       F  0.90534851  0.99441681  0.46768103    -0.15600
F1751       F  0.89026354  0.93879066  0.44348505    -0.19100
F1752       F  0.58505017  0.50344046  0.48492714    -0.22500
F1753       F  0.58630395  0.56081647  0.49774623    -0.24000
F1754       F  0.60460288  0.55333938  0.45554316    -0.18000
F1755       F  0.02581869  0.91610009  0.57188137    -0.20500
F1756       F  0.57849908  0.97830193  0.57867294    -0.21600
F1757       F  0.56610003  0.94900691  0.53839341    -0.18800
F1758       F  0.01583208  0.59804784  0.53971596    -0.18900
F1759       F  0.97071810  0.55491102  0.50998818    -0.22700
F1760       F  0.52832386  0.58225286  0.50284351    -0.24300
C1761       C  0.02369178  0.53901075  0.97183393    -0.11100
C1762       C  0.51458041  0.50923131  0.98632727     0.11400
C1763       C  0.50030707  0.97123932  0.97065757    -0.03000
C1764       C  0.50153916  0.97365627  0.94209019    -0.05700
C1765       C  0.51451393  0.00987002  0.92812629    -0.16500
C1766       C  0.02754627  0.54243778  0.94316794     0.02500
C1767       C  0.51027339  0.50753116  0.01668238     0.12400
C1768       C  0.48623313  0.93094421  0.98366302     0.63000
H1769       H  0.49133900  0.94608604  0.93069253     0.12400
C1770       C  0.05349226  0.58458331  0.93245131     0.55200
H1771       H  0.03341420  0.56534860  0.98482188     0.08200
C1772       C  0.54212123  0.51719923  0.03434305    -0.05600
C1773       C  0.53456888  0.51225577  0.06251647    -0.06300
C1774       C  0.49399170  0.99250146  0.07503712    -0.15900
C1775       C  0.95581265  0.97344187  0.05661595    -0.01500
C1776       C  0.96267774  0.98172920  0.02852621    -0.09000
C1777       C  0.58418190  0.53334263  0.02358627     0.65200
H1778       H  0.55991005  0.52283425  0.07579211     0.10700
C1779       C  0.91137447  0.94659520  0.06262576     0.63600
H1780       H  0.93773400  0.97261223  0.01489898     0.08000
F1781       F  0.08891419  0.58842079  0.92283498    -0.19400
F1782       F  0.05726077  0.11260377  0.95545540    -0.15600
F1783       F  0.03515068  0.59340601  0.91215191    -0.19100
F1784       F  0.44931460  0.91789888  0.99530983    -0.22500
F1785       F  0.51720075  0.43646221  0.00069670    -0.24000
F1786       F  0.48320875  0.90208586  0.96482738    -0.18000
F1787       F  0.89257964  0.96930304  0.06313597    -0.20500
F1788       F  0.90222377  0.92508958  0.08585042    -0.21600
F1789       F  0.89424211  0.91791176  0.04199132    -0.18800
F1790       F  0.61023136  0.53679024  0.04384863    -0.18900
F1791       F  0.59740130  0.57074591  0.01297634    -0.22700
F1792       F  0.58525947  0.50807641  0.00338288    -0.24300
C1793       C  0.60088781  0.92971324  0.34721477    -0.11100
C1794       C  0.55950531  0.90803132  0.34967913     0.11400
C1795       C  0.53845517  0.87017709  0.33630537    -0.03000
C1796       C  0.55947934  0.85647732  0.31956935    -0.05700
C1797       C  0.60071135  0.87937377  0.31542851    -0.16500
C1798       C  0.62208420  0.91591272  0.33064952     0.02500
C1799       C  0.53857150  0.92859396  0.36212332     0.12400
C1800       C  0.49362450  0.84500816  0.33867135     0.63000
H1801       H  0.54320436  0.82849678  0.30829532     0.12400
C1802       C  0.66697620  0.94046746  0.32980594     0.55200
H1803       H  0.61638487  0.95876217  0.35732606     0.09400
C1804       C  0.53413001  0.93268186  0.39033663    -0.05600
C1805       C  0.51284764  0.95197576  0.39956075    -0.06300
C1806       C  0.49881559  0.97131250  0.38190896    -0.15900
C1807       C  0.49952233  0.96182727  0.35301608    -0.01500
C1808       C  0.52160659  0.94329877  0.34425552    -0.09000
C1809       C  0.55276192  0.91770404  0.41067885     0.65200
H1810       H  0.50714227  0.95124374  0.42105991     0.10700
C1811       C  0.98187598  0.97120808  0.33108596     0.63600
H1812       H  0.52514981  0.93873706  0.32276641     0.08000
F1813       F  0.68150069  0.97003741  0.35000959    -0.19400
F1814       F  0.67931430  0.95878233  0.30497117    -0.15600
F1815       F  0.68310289  0.91591576  0.33383127    -0.19100
F1816       F  0.97735815  0.83037825  0.32104785    -0.22500
F1817       F  0.48230713  0.84144804  0.36573912    -0.24000
F1818       F  0.47994690  0.80687761  0.32774275    -0.18000
F1819       F  0.48547327  0.95928762  0.30475103    -0.20500
F1820       F  0.98985056  0.00999260  0.33181881    -0.21600
F1821       F  0.94164049  0.94586495  0.33336443    -0.18800
F1822       F  0.54333186  0.92260396  0.43731902    -0.18900
F1823       F  0.59357564  0.93883080  0.40806724    -0.22700
F1824       F  0.53983111  0.87754387  0.40591794    -0.24300
C1825       C  0.88726903  0.97290093  0.35804219    -0.11100
C1826       C  0.86647026  0.93259582  0.36391589     0.11400
C1827       C  0.88306900  0.91634876  0.38126410    -0.03000
C1828       C  0.92160741  0.94131412  0.39106917    -0.05700
C1829       C  0.94461212  0.98270080  0.38492236    -0.16500
C1830       C  0.92485070  0.99920283  0.36896505     0.02500
C1831       C  0.82876848  0.90842551  0.34916181     0.12400
C1832       C  0.86026313  0.87284108  0.38930016     0.63000
H1833       H  0.93452223  0.92817621  0.40381185     0.12400
C1834       C  0.93535725  0.54586868  0.36732546     0.55200
H1835       H  0.87304179  0.98340884  0.34421962     0.08200
C1836       C  0.79566682  0.91417719  0.35349111    -0.05600
C1837       C  0.76557804  0.89931854  0.33380599    -0.06300
C1838       C  0.76686211  0.87782990  0.31054337    -0.15900
C1839       C  0.79908080  0.86971449  0.30732194    -0.01500
C1840       C  0.82974527  0.88603437  0.32657610    -0.09000
C1841       C  0.79322843  0.93863916  0.37751178     0.65200
H1842       H  0.74110176  0.90518195  0.33639440     0.10700
C1843       C  0.80267730  0.84539891  0.28347828     0.63600
H1844       H  0.85606836  0.88324593  0.32344718     0.08000
F1845       F  0.90871046  0.55276992  0.35309814    -0.19400
F1846       F  0.96930878  0.56203310  0.35228321    -0.15600
F1847       F  0.94086162  0.56593754  0.39181917    -0.19100
F1848       F  0.85494592  0.84824986  0.36684805    -0.22500
F1849       F  0.82359566  0.86435330  0.39971288    -0.24000
F1850       F  0.88000041  0.86418628  0.40897861    -0.18000
F1851       F  0.83765073  0.84378485  0.28422292    -0.20500
F1852       F  0.80212641  0.86232522  0.25911915    -0.21600
F1853       F  0.77179570  0.80648373  0.28426743    -0.18800
F1854       F  0.75411901  0.92705078  0.38387622    -0.18900
F1855       F  0.81239387  0.97865201  0.37111605    -0.22700
F1856       F  0.81054308  0.93358427  0.40040389    -0.24300
C1857       C  0.53523256  0.61680411  0.38208156    -0.11100
C1858       C  0.55644840  0.61778934  0.35853565     0.11400
C1859       C  0.56509719  0.58657739  0.35373382    -0.03000
C1860       C  0.54479835  0.55168531  0.36903837    -0.05700
C1861       C  0.51418313  0.54549448  0.38812606    -0.16500
C1862       C  0.51674766  0.58246932  0.39859196     0.02500
C1863       C  0.57270626  0.65342048  0.34082789     0.12400
C1864       C  0.59636582  0.59059745  0.33292024     0.63000
H1865       H  0.55326665  0.52918410  0.36546056     0.12400
C1866       C  0.50714125  0.58994085  0.42781202     0.55200
H1867       H  0.53409051  0.64370471  0.38766448     0.08200
C1868       C  0.55361372  0.65363224  0.31644097    -0.05600
C1869       C  0.57198904  0.68713312  0.29987370    -0.06300
C1870       C  0.60851290  0.72045190  0.30664476    -0.15900
C1871       C  0.62757062  0.72063513  0.33120414    -0.01500
C1872       C  0.60897608  0.68700555  0.34801054    -0.09000
C1873       C  0.51307393  0.61980356  0.30827063     0.65200
H1874       H  0.55768558  0.68756126  0.28120641     0.10700
C1875       C  0.66702675  0.75594836  0.33983844     0.63600
H1876       H  0.62306058  0.68617795  0.36668010     0.08000
F1877       F  0.01289506  0.63013426  0.42714366    -0.19400
F1878       F  0.53545448  0.59123592  0.44517106    -0.15600
F1879       F  0.47036048  0.56152447  0.43629785    -0.19100
F1880       F  0.63256047  0.62285347  0.34014772    -0.22500
F1881       F  0.58627204  0.59660504  0.30729981    -0.24000
F1882       F  0.60074749  0.55689956  0.33141419    -0.18000
F1883       F  0.67748824  0.75181988  0.36589568    -0.20500
F1884       F  0.66485500  0.79085841  0.33952293    -0.21600
F1885       F  0.69661396  0.75900801  0.32225110    -0.18800
F1886       F  0.50280201  0.62396428  0.28215511    -0.18900
F1887       F  0.48507638  0.61998401  0.32596463    -0.22700
F1888       F  0.51217880  0.58344046  0.30890245    -0.24300
C1889       C  0.60863343  0.91625616  0.15511928    -0.11100
C1890       C  0.57794242  0.92359458  0.16369368     0.11400
C1891       C  0.56291740  0.91407446  0.19059031    -0.03000
C1892       C  0.57979458  0.89834414  0.20824276    -0.05700
C1893       C  0.61110019  0.89193487  0.19999735    -0.16500
C1894       C  0.62557218  0.90047551  0.17289514     0.02500
C1895       C  0.56227804  0.94192127  0.14444869     0.12400
C1896       C  0.52935796  0.92080669  0.20072321     0.63000
H1897       H  0.56886643  0.89120353  0.22892454     0.12400
C1898       C  0.65703325  0.89079387  0.16243452     0.55200
H1899       H  0.61924413  0.92310726  0.13436227     0.08200
C1900       C  0.57928529  0.98356165  0.14238599    -0.05600
C1901       C  0.55839924  0.99878191  0.12825754    -0.06300
C1902       C  0.52057084  0.97383621  0.11596218    -0.15900
C1903       C  0.51156886  0.93292597  0.11106143    -0.01500
C1904       C  0.53027614  0.91730123  0.12757123    -0.09000
C1905       C  0.61542446  0.51441142  0.16114074     0.65200
H1906       H  0.57319630  0.53464663  0.12879989     0.10700
C1907       C  0.98069785  0.90305732  0.08753042     0.63600
H1908       H  0.52036908  0.88557121  0.12726995     0.08000
F1909       F  0.69226695  0.91389801  0.17618926    -0.19400
F1910       F  0.66430099  0.89787761  0.13488607    -0.15600
F1911       F  0.64422646  0.85081235  0.16644268    -0.19100
F1912       F  0.49630629  0.89927757  0.18452574    -0.22500
F1913       F  0.54092186  0.96095300  0.19982829    -0.24000
F1914       F  0.51880382  0.90883795  0.22732953    -0.18000
F1915       F  0.98148352  0.86738102  0.08548119    -0.20500
F1916       F  0.99151201  0.92027114  0.06234345    -0.21600
F1917       F  0.94221617  0.89327206  0.09313218    -0.18800
F1918       F  0.62697546  0.55431362  0.15764439    -0.18900
F1919       F  0.64791619  0.00434895  0.14250092    -0.22700
F1920       F  0.61916026  0.00575437  0.18243244    -0.24300
C1921       C  0.80448454  0.88990487  0.15608989    -0.11100
C1922       C  0.83982263  0.91937087  0.16791822     0.11400
C1923       C  0.83951888  0.93309061  0.19488939    -0.03000
C1924       C  0.80376131  0.91550794  0.20949161    -0.05700
C1925       C  0.76841750  0.88481581  0.19818681    -0.16500
C1926       C  0.76846728  0.87237872  0.17060032     0.02500
C1927       C  0.87669258  0.93567905  0.15143829     0.12400
C1928       C  0.87684632  0.96566970  0.20842906     0.63000
H1929       H  0.80342185  0.92499689  0.23042782     0.12400
C1930       C  0.73227243  0.84242203  0.15472548     0.55200
H1931       H  0.80507521  0.88055799  0.13511561     0.08200
C1932       C  0.90014508  0.91709125  0.15003495    -0.05600
C1933       C  0.93691382  0.93661228  0.13668415    -0.06300
C1934       C  0.95000733  0.97216641  0.12164375    -0.15900
C1935       C  0.92388086  0.98939981  0.12214301    -0.01500
C1936       C  0.88852003  0.97092435  0.13755985    -0.09000
C1937       C  0.88595208  0.87623297  0.16223585     0.65200
H1938       H  0.95535142  0.92343704  0.13877442     0.10700
C1939       C  0.93208076  0.52838232  0.10721458     0.63600
H1940       H  0.86970896  0.98447345  0.13941154     0.08000
F1941       F  0.73718095  0.81027278  0.14670665    -0.19400
F1942       F  0.72864854  0.86022778  0.13164074    -0.15600
F1943       F  0.69743423  0.82856790  0.16921357    -0.19100
F1944       F  0.89166911  0.00032771  0.19377663    -0.22500
F1945       F  0.90501358  0.95352685  0.20958312    -0.24000
F1946       F  0.86973885  0.97441042  0.23477943    -0.18000
F1947       F  0.89646374  0.52531371  0.09924237    -0.20500
F1948       F  0.95522306  0.53747254  0.08419571    -0.21600
F1949       F  0.94939543  0.55968549  0.12593968    -0.18800
F1950       F  0.91362364  0.86341914  0.15919225    -0.18900
F1951       F  0.85161426  0.84841120  0.14922691    -0.22700
F1952       F  0.87821428  0.87726721  0.18972522    -0.24300
C1953       C  0.53265286  0.58976839  0.15752193    -0.11100
C1954       C  0.54939083  0.62174876  0.14007933     0.11400
C1955       C  0.55125835  0.61469122  0.11202598    -0.03000
C1956       C  0.53313285  0.57485308  0.10213542    -0.05700
C1957       C  0.51569268  0.54110988  0.11943846    -0.16500
C1958       C  0.51762908  0.55005639  0.14850664     0.02500
C1959       C  0.56880924  0.66198014  0.15325019     0.12400
C1960       C  0.57248925  0.64918294  0.09268205     0.63000
H1961       H  0.53198830  0.57089577  0.08041469     0.12400
C1962       C  0.50470300  0.52124574  0.17219747     0.55200
H1963       H  0.53281999  0.59643622  0.17918267     0.08200
C1964       C  0.54668648  0.67924291  0.16455364    -0.05600
C1965       C  0.56559064  0.71212389  0.18274912    -0.06300
C1966       C  0.60496414  0.72648949  0.19127908    -0.15900
C1967       C  0.62726357  0.70927900  0.17934021    -0.01500
C1968       C  0.60870655  0.67787160  0.16010999    -0.09000
C1969       C  0.50277441  0.66160565  0.15852063     0.65200
H1970       H  0.54869377  0.72506602  0.19188733     0.10700
C1971       C  0.66950256  0.72138285  0.18761881     0.63600
H1972       H  0.62426823  0.66287047  0.15193860     0.08000
F1973       F  0.47040870  0.51828527  0.18334164    -0.19400
F1974       F  0.53377147  0.53632609  0.19210697    -0.15600
F1975       F  0.49839953  0.48368139  0.16596211    -0.19100
F1976       F  0.61219611  0.67091513  0.09947534    -0.22500
F1977       F  0.55604172  0.67401195  0.09447385    -0.24000
F1978       F  0.57000423  0.63610941  0.06584951    -0.18000
F1979       F  0.66957578  0.70854520  0.21363421    -0.20500
F1980       F  0.69313610  0.76222649  0.18682336    -0.21600
F1981       F  0.68651014  0.70482646  0.17033965    -0.18800
F1982       F  0.48738174  0.68436180  0.17017093    -0.18900
F1983       F  0.48185281  0.62359310  0.16879570    -0.22700
F1984       F  0.49691766  0.65960961  0.13071703    -0.24300
loop_ 
_geom_bond_atom_site_label_1 
_geom_bond_atom_site_label_2 
_geom_bond_distance 
_geom_bond_site_symmetry_2 
_ccdc_geom_bond_type 
O1           C16   1.262       .  A
O1           Al9   1.910       .  S
C2           O12   1.262       .  A
C2            O3   1.263       .  A
C2          C437   1.484       .  S
O3           Al5   1.912       .  S
O4            C6   1.262       .  A
O4           Al5   1.909       .  S
Al5          O13   1.921       .  S
Al5          O15   1.918       .  S
Al5          O14   1.786       .  S
C6           O19   1.261       .  A
C6          C405   1.483       .  S
O7           C17   1.263       .  A
O7           Al9   1.914       .  S
O8           C21   1.257       .  A
O8          Al18   1.890       .  S
Al9          O22   1.903       .  S
Al9          O19   1.905       .  S
Al9          O14   1.789       .  S
O10          C17   1.256       .  A
O10         Al18   1.899       .  S
O11          C20   1.254       .  A
O11         Al18   1.886       .  S
O12         Al18   1.903       .  S
O13          C20   1.265       .  A
O14         Al18   1.790       .  S
O15          C16   1.260       .  A
C16         C309   1.503       .  S
C17         C478   1.500       .  S
C20         C350   1.490       .  S
C21          O22   1.263       .  A
C21         C382   1.481       .  S
C23         C469   1.598   1_665  S
C23         C782   1.594       .  S
C23         C910   1.605   1_655  S
C23        C1934   1.576       .  S
C24         C245   1.596       .  S
C24        C1806   1.623   1_545  S
C24         C837   1.577   1_545  S
C24        C1365   1.609       .  S
O25          C40   1.263       .  A
O25         Al33   1.900       .  S
C26          O36   1.255       .  A
C26          O27   1.265       .  A
C26         C181   1.469       .  S
O27         Al29   1.923       .  S
O28          C30   1.254       .  A
O28         Al29   1.896       .  S
Al29         O37   1.900       .  S
Al29         O39   1.931       .  S
Al29         O38   1.793       .  S
C30          O43   1.257       .  A
C30         C213   1.482       .  S
O31          C41   1.263       .  A
O31         Al33   1.903       .  S
O32          C45   1.260       .  A
O32         Al42   1.903       .  S
Al33         O46   1.926       .  S
Al33         O43   1.914       .  S
Al33         O38   1.789       .  S
O34          C41   1.259       .  A
O34         Al42   1.908       .  S
O35          C44   1.256       .  A
O35         Al42   1.902       .  S
O36         Al42   1.870       .  S
O37          C44   1.257       .  A
O38         Al42   1.796       .  S
O39          C40   1.270       .  A
C40         C117   1.497       .  S
C41         C149   1.489       .  S
C44          C94   1.478       .  S
C45          O46   1.263       .  A
C45          C62   1.483       .  S
C47         C277   1.573       .  S
C47        C1045   1.615   1_455  S
C47         C581   1.608       .  S
C47        C1614   1.598   1_455  S
C48         C222   1.603   1_565  S
C48         C254   1.613       .  S
C48         C654   1.575       .  S
C48        C1182   1.587   1_565  S
C49          C50   1.394       .  A
C49          C54   1.419       .  A
C49          H59   1.082       .  S
C50          C55   1.490       .  S
C50          C51   1.405       .  A
C51          C56   1.523       .  S
C51          C52   1.402       .  A
C52          C53   1.431       .  A
C52        H1049   1.075       .  S
C53        C1039   1.615       .  S
C53          C54   1.462       .  A
C54          C58   1.539       .  S
C55          C60   1.415       .  A
C55          C64   1.402       .  A
C56          F72   1.383       .  S
C56          F73   1.381       .  S
C56        F1066   1.384       .  S
H57        C1044   1.072       .  S
C58          F69   1.385       .  S
C58          F70   1.374       .  S
C58          F71   1.372       .  S
C60          C65   1.516       .  S
C60          C61   1.411       .  A
C61          C62   1.405       .  A
C61          H66   1.083       .  S
C62          C63   1.419       .  A
C63          C67   1.518       .  S
C63          C64   1.408       .  A
C64          H68   1.083       .  S
C65          F78   1.382       .  S
C65          F79   1.384       .  S
C65          F80   1.383       .  S
C67          F75   1.385       .  S
C67          F76   1.382       .  S
C67          F77   1.382       .  S
F74        C1048   1.385       .  S
C81          C82   1.392       .  A
C81          C86   1.415       .  A
C81          H91   1.082       .  S
C82          C87   1.485       .  S
C82          C83   1.403       .  A
C83          C88   1.523       .  S
C83          C84   1.403       .  A
C84          C85   1.428       .  A
C84          H89   1.073       .  S
C85         C543   1.608       .  S
C85          C86   1.457       .  A
C86         C586   1.531   1_545  S
C87          C92   1.416       .  A
C87          C96   1.400       .  A
C88         F104   1.383       .  S
C88         F105   1.380       .  S
C88         F106   1.384       .  S
C90         C582   1.531       .  S
C90         F102   1.386       .  S
C90         F103   1.376       .  S
C90         F597   1.380       .  S
C92          C97   1.519       .  S
C92          C93   1.409       .  A
C93          C94   1.403       .  A
C93          H98   1.083       .  S
C94          C95   1.419       .  A
C95          C99   1.518       .  S
C95          C96   1.407       .  A
C96         H100   1.083       .  S
C97         F110   1.384       .  S
C97         F111   1.382       .  S
C97         F112   1.381       .  S
C99         F107   1.385       .  S
C99         F108   1.382       .  S
C99         F109   1.381       .  S
F101        C586   1.379   1_545  S
C113        C114   1.399       .  A
C113        C118   1.410       .  A
C113        H123   1.083       .  S
C114        C119   1.494       .  S
C114        C115   1.417       .  A
C115        C120   1.519       .  S
C115        C116   1.411       .  A
C116        C117   1.408       .  A
C116        H121   1.083       .  S
C117        C118   1.426       .  A
C118        C122   1.520       .  S
C119        C124   1.407       .  A
C119        C128   1.396       .  A
C120        F136   1.382       .  S
C120        F137   1.383       .  S
C120        F138   1.384       .  S
C122        F133   1.383       .  S
C122        F134   1.385       .  S
C122        F135   1.383       .  S
C124        C129   1.523       .  S
C124        C125   1.404       .  A
C125        C126   1.430       .  A
C125       H1122   1.078       .  S
C126       C1535   1.600       .  S
C126        C127   1.456       .  A
C127        C131   1.530       .  S
C127        C128   1.417       .  A
C128        H132   1.085       .  S
C129        F144   1.383       .  S
C129       F1134   1.385       .  S
C129       F1135   1.382       .  S
H130       C1117   1.080       .  S
C131        F139   1.382       .  S
C131        F636   1.367       .  S
C131        F637   1.386       .  S
F140        C627   1.367       .  S
F141        C627   1.386       .  S
F142       C1121   1.384       .  S
F143       C1121   1.382       .  S
C145        C146   1.400       .  A
C145        C150   1.409       .  A
C145        H155   1.083       .  S
C146        C151   1.487       .  S
C146        C147   1.416       .  A
C147        C152   1.514       .  S
C147        C148   1.402       .  A
C148        C149   1.402       .  A
C148        H153   1.083       .  S
C149        C150   1.426       .  A
C150        C154   1.519       .  S
C151        C156   1.406       .  A
C151        C160   1.389       .  A
C152        F168   1.377       .  S
C152        F169   1.381       .  S
C152        F170   1.384       .  S
C154        F165   1.385       .  S
C154        F166   1.382       .  S
C154        F167   1.382       .  S
C156        C161   1.518       .  S
C156        C157   1.412       .  A
C157        C158   1.422       .  A
C157        H162   1.074       .  S
C158        C544   1.576       .  S
C158        C159   1.456       .  A
C159        C163   1.536       .  S
C159        C160   1.409       .  A
C160        H164   1.083       .  S
C161        F174   1.384       .  S
C161        F175   1.383       .  S
C161        F176   1.382       .  S
C163        F171   1.379       .  S
C163       F1660   1.373       .  S
C163       F1165   1.385       .  S
F172       C1651   1.373   1_445  S
F173       C1155   1.385       .  S
C177        C178   1.406       .  A
C177        C182   1.409       .  A
C177        H187   1.083       .  S
C178        C183   1.481       .  S
C178        C179   1.416       .  A
C179        C184   1.519       .  S
C179        C180   1.401       .  A
C180        C181   1.399       .  A
C180        H185   1.084       .  S
C181        C182   1.413       .  A
C182        C186   1.516       .  S
C183        C188   1.406       .  A
C183        C192   1.386       .  A
C184        F200   1.382       .  S
C184        F201   1.381       .  S
C184        F202   1.385       .  S
C186        F197   1.385       .  S
C186        F198   1.382       .  S
C186        F199   1.384       .  S
C188        C193   1.516       .  S
C188        C189   1.412       .  A
C189        C190   1.428       .  A
C189        H194   1.080       .  S
C190       C1040   1.590   1_545  S
C190        C191   1.452   1_545  A
C191        C691   1.523       .  S
C191        C192   1.400   1_565  A
C192        H196   1.087       .  S
C193        F206   1.384       .  S
C193        F207   1.383       .  S
C193        F208   1.381       .  S
C195        C687   1.524       .  S
C195        F203   1.386       .  S
C195        F204   1.364       .  S
C195        F205   1.382       .  S
C209        C210   1.403       .  A
C209        C214   1.409       .  A
C209        H219   1.083       .  S
C210        C215   1.491       .  S
C210        C211   1.415       .  A
C211        C216   1.515       .  S
C211        C212   1.411       .  A
C212        C213   1.403       .  A
C212        H217   1.083       .  S
C213        C214   1.419       .  A
C214        C218   1.519       .  S
C215        C220   1.409       .  A
C215        C224   1.393       .  A
C216        F232   1.383       .  S
C216        F233   1.382       .  S
C216        F234   1.384       .  S
C218        F229   1.382       .  S
C218        F230   1.384       .  S
C218        F231   1.383       .  S
C220        C225   1.522       .  S
C220        C221   1.408       .  A
C221        C222   1.428       .  A
C221       H1218   1.074       .  S
C222        C223   1.456       .  A
C223        C227   1.531   1_545  S
C223        C224   1.415       .  A
C224        H228   1.084       .  S
C225        F239   1.383       .  S
C225        F240   1.381       .  S
C225       F1230   1.383       .  S
H226       C1213   1.073       .  S
C227        F237   1.386       .  S
C227        F731   1.382       .  S
C227        F732   1.373       .  S
F235        C723   1.382       .  S
F236        C723   1.373       .  S
F238       C1217   1.384       .  S
C241        C246   1.409       .  A
C241       C1730   1.389       .  A
C241        H251   1.086       .  S
C242        C247   1.494       .  S
C242        C243   1.410       .  A
C242       C1729   1.391   1_445  A
C243        C248   1.519       .  S
C243        C244   1.408       .  A
C244       C1237   1.425   1_455  A
C244        H249   1.082       .  S
C245       C1236   1.426       .  A
C245        C742   1.462   1_545  A
C246        C250   1.541       .  S
C246        C741   1.462       .  A
C247       C1244   1.407       .  A
C247        C752   1.393   1_545  A
C248        F264   1.382       .  S
C248        F265   1.383       .  S
C248        F266   1.385       .  S
C250        F261   1.371       .  S
C250        F262   1.387       .  S
C250        F263   1.382       .  S
C252        C257   1.522       .  S
C252        C253   1.408       .  A
C252       C1239   1.408       .  A
C253        C254   1.430   1_545  A
C253        H258   1.075       .  S
C254       C1743   1.459       .  A
C255        C259   1.531       .  S
C255        C256   1.416       .  A
C255       C1742   1.456       .  A
C256        C743   1.392       .  A
C256        H260   1.083       .  S
C257        F270   1.384       .  S
C257        F271   1.381       .  S
C257       F1264   1.382       .  S
C259        F268   1.374       .  S
C259        F269   1.386       .  S
C259       F1259   1.374       .  S
F267       C1251   1.374       .  S
F272       C1249   1.382   1_455  S
C273        C278   1.422       .  A
C273       C1266   1.400       .  A
C273        H283   1.081       .  S
C274        C279   1.497   1_546  S
C274       C1265   1.398       .  A
C274        C771   1.410   1_445  A
C275        C280   1.522       .  S
C275        C276   1.406       .  A
C275        C770   1.410   1_655  A
C276        C277   1.420   1_655  A
C276        H281   1.074       .  S
C277       C1766   1.448       .  A
C278        C282   1.531       .  S
C278       C1765   1.450       .  A
C279        C284   1.406   1_565  A
C279       C1776   1.393   1_455  A
C280        F296   1.381       .  S
C280        F298   1.385       .  S
C280        F793   1.382   1_656  S
C282        F293   1.381       .  S
C282        F295   1.375       .  S
C282        F790   1.385       .  S
C284        C289   1.521       .  S
C284        C285   1.407       .  A
C285        C782   1.428   1_445  A
C285        H290   1.079       .  S
C286        C519   1.595       .  S
C286        C781   1.429   1_655  A
C286       C1279   1.465       .  A
C287        C291   1.539       .  S
C287        C288   1.416       .  A
C287       C1278   1.459       .  A
C288       C1767   1.395       .  A
C288        H292   1.086       .  S
C289        F302   1.384       .  S
C289        F303   1.382       .  S
C289        F304   1.383       .  S
C291        F299   1.382       .  S
C291        F300   1.366       .  S
C291        F301   1.386       .  S
F294        C778   1.385       .  S
F297        C776   1.383   1_454  S
C305        C306   1.401       .  A
C305        C310   1.411       .  A
C305        H315   1.083       .  S
C306        C311   1.494       .  S
C306        C307   1.417       .  A
C307        C312   1.520   1_455  S
C307        C308   1.411       .  A
C308        C309   1.410       .  A
C308        H313   1.082       .  S
C309        C310   1.427       .  A
C310        C314   1.520       .  S
C311        C316   1.408       .  A
C311        C320   1.389       .  A
C312        F329   1.381       .  S
C312        F330   1.385       .  S
C312       F1320   1.382       .  S
C314        F325   1.385       .  S
C314        F326   1.383       .  S
C314        F327   1.382       .  S
C316        C321   1.520       .  S
C316        C317   1.414       .  A
C317        C318   1.427   1_455  A
C317        H322   1.074       .  S
C318       C1512   1.623       .  S
C318        C319   1.459       .  A
C319       C1315   1.528       .  S
C319        C320   1.411   1_655  A
C320        H324   1.083       .  S
C321        F334   1.384       .  S
C321        F335   1.382       .  S
C321        F336   1.381       .  S
C323       C1311   1.528       .  S
C323        F332   1.365       .  S
C323        F333   1.377       .  S
C323       F1323   1.385       .  S
F328       C1304   1.381       .  S
F331       C1315   1.385       .  S
C337        C338   1.388       .  A
C337        C342   1.410       .  A
C337        H347   1.082       .  S
C338        C343   1.481       .  S
C338        C339   1.403       .  A
C339        C344   1.519       .  S
C339        C340   1.405       .  A
C340        C341   1.428       .  A
C340        H345   1.082       .  S
C341        C520   1.581       .  S
C341        C342   1.459       .  A
C342        C842   1.524       .  S
C343        C348   1.416       .  A
C343        C352   1.397       .  A
C344        F360   1.381       .  S
C344        F361   1.383       .  S
C344        F362   1.384       .  S
C346        C838   1.525   1_545  S
C346        F357   1.386       .  S
C346        F358   1.361       .  S
C346        F359   1.372       .  S
C348        C353   1.517       .  S
C348        C349   1.406       .  A
C349        C350   1.406       .  A
C349        H354   1.083       .  S
C350        C351   1.429       .  A
C351        C355   1.524       .  S
C351        C352   1.402       .  A
C352        H356   1.083       .  S
C353        F366   1.384       .  S
C353        F367   1.383       .  S
C353        F368   1.383       .  S
C355        F363   1.385       .  S
C355        F364   1.381       .  S
C355        F365   1.383       .  S
C369        C370   1.396       .  A
C369        C374   1.420       .  A
C369        H379   1.083       .  S
C370        C375   1.489       .  S
C370        C371   1.408       .  A
C371        C376   1.522       .  S
C371        C372   1.408       .  A
C372        C373   1.426       .  A
C372        H377   1.073       .  S
C373       C1016   1.607   1_455  S
C373        C374   1.452       .  A
C374        C378   1.530       .  S
C375        C380   1.418       .  A
C375        C384   1.404       .  A
C376        F392   1.382       .  S
C376        F393   1.382       .  S
C376        F394   1.385       .  S
C378        F390   1.379       .  S
C378        F391   1.369   1_455  S
C378       F1381   1.385       .  S
C380        C385   1.515       .  S
C380        C381   1.400       .  A
C381        C382   1.401       .  A
C381        H386   1.083       .  S
C382        C383   1.420       .  A
C383        C387   1.519       .  S
C383        C384   1.410       .  A
C384        H388   1.083       .  S
C385        F398   1.385   1_455  S
C385        F399   1.381   1_455  S
C385        F400   1.381       .  S
C387        F395   1.385       .  S
C387        F396   1.384       .  S
C387        F397   1.382       .  S
F389       C1370   1.385       .  S
C401        C402   1.404       .  A
C401        C406   1.412       .  A
C401        H411   1.083       .  S
C402        C407   1.491       .  S
C402        C403   1.416       .  A
C403        C408   1.517       .  S
C403        C404   1.405       .  A
C404        C405   1.403       .  A
C404        H409   1.083       .  S
C405        C406   1.418       .  A
C406        C410   1.515       .  S
C407        C412   1.406       .  A
C407        C416   1.397       .  A
C408        F424   1.381   1_455  S
C408        F425   1.380       .  S
C408        F426   1.384       .  S
C410        F421   1.382       .  S
C410        F422   1.384       .  S
C410        F423   1.382       .  S
C412        C913   1.521       .  S
C412        C413   1.406       .  A
C413        C414   1.429       .  A
C413        H914   1.076       .  S
C414        C519   1.611   1_455  S
C414        C415   1.446       .  A
C415       C1411   1.525   1_455  S
C415        C416   1.417       .  A
C416        H420   1.083       .  S
C417        C908   1.520   1_545  S
C417        F430   1.385       .  S
C417        F927   1.383       .  S
C417        F928   1.382       .  S
H418        C909   1.077   1_545  S
C419       C1407   1.525       .  S
C419        F427   1.385       .  S
C419        F428   1.380       .  S
C419        F429   1.370       .  S
F431        C913   1.383       .  S
F432        C913   1.382       .  S
C433        C434   1.400       .  A
C433        C438   1.406       .  A
C433        H443   1.085       .  S
C434        C439   1.487       .  S
C434        C435   1.414       .  A
C435        C440   1.518       .  S
C435        C436   1.405       .  A
C436        C437   1.407       .  A
C436        H441   1.083       .  S
C437        C438   1.423       .  A
C438        C442   1.516       .  S
C439        C444   1.405       .  A
C439        C448   1.393       .  A
C440        F456   1.382       .  S
C440        F457   1.382       .  S
C440        F458   1.385       .  S
C442        F453   1.383       .  S
C442        F454   1.384       .  S
C442        F455   1.377       .  S
C444        C449   1.525       .  S
C444        C445   1.404       .  A
C445        C446   1.427       .  A
C445        H450   1.069       .  S
C446       C1511   1.585       .  S
C446        C447   1.453       .  A
C447        C947   1.527       .  S
C447        C448   1.412       .  A
C448        H452   1.085       .  S
C449        F462   1.384       .  S
C449        F463   1.381       .  S
C449        F464   1.382       .  S
C451        C943   1.531   1_545  S
C451        F459   1.386       .  S
C451        F460   1.372       .  S
C451        F461   1.381       .  S
C465        C466   1.386       .  A
C465        C470   1.404       .  A
C465        H475   1.084       .  S
C466        C471   1.486       .  S
C466        C467   1.405       .  A
C467        C472   1.519       .  S
C467        C468   1.411       .  A
C468        C469   1.428       .  A
C468        H473   1.072       .  S
C469        C470   1.456       .  A
C470        C474   1.529       .  S
C471        C476   1.415       .  A
C471        C480   1.397       .  A
C472        F488   1.383       .  S
C472        F489   1.381       .  S
C472        F490   1.385       .  S
C474        F485   1.377   1_455  S
C474        F486   1.386       .  S
C474        F487   1.367   1_545  S
C476        C481   1.520       .  S
C476        C477   1.409       .  A
C477        C478   1.409       .  A
C477        H482   1.082       .  S
C478        C479   1.431       .  A
C479        C483   1.522       .  S
C479        C480   1.408       .  A
C480        H484   1.083       .  S
C481        F494   1.384   1_455  S
C481        F495   1.383   1_455  S
C481        F496   1.381   1_455  S
C483        F491   1.383       .  S
C483        F492   1.379       .  S
C483        F493   1.385       .  S
O497        C512   1.262       .  A
O497       Al505   1.911       .  S
C498        O508   1.261       .  A
C498        O499   1.263       .  A
C498        C933   1.483       .  S
O499       Al501   1.907       .  S
O500        C502   1.261       .  A
O500       Al501   1.898       .  S
Al501       O509   1.916       .  S
Al501       O511   1.909       .  S
Al501       O510   1.783       .  S
C502        O515   1.263       .  A
C502        C901   1.477       .  S
O503        C513   1.264       .  A
O503       Al505   1.920       .  S
O504        C517   1.256       .  A
O504       Al514   1.888       .  S
Al505       O518   1.909       .  S
Al505       O515   1.912       .  S
Al505       O510   1.785       .  S
O506        C513   1.255       .  A
O506       Al514   1.892       .  S
O507        C516   1.254       .  A
O507       Al514   1.882       .  S
O508       Al514   1.904       .  S
O509        C516   1.264       .  A
O510       Al514   1.785       .  S
O511        C512   1.258       .  A
C512        C805   1.499       .  S
C513        C974   1.499       .  S
C516        C846   1.487       .  S
C517        O518   1.265       .  A
C517        C878   1.482       .  S
C519       C1438   1.580       .  S
C519        C965   1.599   1_655  S
C520        C741   1.594       .  S
C520       C1310   1.625       .  S
C520       C1861   1.610       .  S
O521        C536   1.262       .  A
O521       Al529   1.894       .  S
C522        O532   1.257       .  A
C522        O523   1.264       .  A
C522        C677   1.469       .  S
O523       Al525   1.918       .  S
O524        C526   1.253       .  A
O524       Al525   1.901       .  S
Al525       O533   1.902       .  S
Al525       O535   1.942       .  S
Al525       O534   1.792       .  S
C526        O539   1.254       .  A
C526        C709   1.474       .  S
O527        C537   1.264       .  A
O527       Al529   1.906       .  S
O528        C541   1.261       .  A
O528       Al538   1.912       .  S
Al529       O542   1.912       .  S
Al529       O539   1.902       .  S
Al529       O534   1.790       .  S
O530        C537   1.262       .  A
O530       Al538   1.919       .  S
O531        C540   1.258       .  A
O531       Al538   1.906       .  S
O532       Al538   1.877       .  S
O533        C540   1.258       .  A
O534       Al538   1.791       .  S
O535        C536   1.272       .  A
C536        C613   1.501       .  S
C537        C645   1.494       .  S
C540        C590   1.481       .  S
C541        O542   1.258       .  A
C541        C558   1.477       .  S
C543       C1541   1.615   1_445  S
C543       C1118   1.600   1_455  S
C543        C773   1.575       .  S
C544       C1678   1.589       .  S
C544        C718   1.595       .  S
C544        C750   1.607       .  S
C545        C546   1.390       .  A
C545        C550   1.418       .  A
C545        H555   1.082       .  S
C546        C551   1.491       .  S
C546        C547   1.402       .  A
C547        C552   1.524       .  S
C547        C548   1.405       .  A
C548        C549   1.434       .  A
C548       H1545   1.070       .  S
C549       C1535   1.619   1_565  S
C549        C550   1.463       .  A
C550        C554   1.538       .  S
C551        C556   1.418       .  A
C551        C560   1.402       .  A
C552        F568   1.382       .  S
C552        F569   1.382       .  S
C552       F1562   1.385       .  S
H553       C1540   1.065       .  S
C554        F565   1.386       .  S
C554        F566   1.373       .  S
C554        F567   1.372       .  S
C556        C561   1.518       .  S
C556        C557   1.413       .  A
C557        C558   1.404       .  A
C557        H562   1.083       .  S
C558        C559   1.415       .  A
C559        C563   1.516       .  S
C559        C560   1.405       .  A
C560        H564   1.083       .  S
C561        F574   1.385       .  S
C561        F575   1.382       .  S
C561        F576   1.382       .  S
C563        F571   1.385       .  S
C563        F572   1.382       .  S
C563        F573   1.382       .  S
F570       C1544   1.385       .  S
C577        C578   1.392       .  A
C577        C582   1.415       .  A
C577        H587   1.082       .  S
C578        C583   1.491       .  S
C578        C579   1.406       .  A
C579        C584   1.523       .  S
C579        C580   1.408       .  A
C580        C581   1.428       .  A
C580        H585   1.073       .  S
C581        C582   1.457       .  A
C583        C588   1.417       .  A
C583        C592   1.402       .  A
C584        F600   1.383       .  S
C584        F601   1.380       .  S
C584        F602   1.385       .  S
C586        F598   1.385       .  S
C586        F599   1.376       .  S
C588        C593   1.518       .  S
C588        C589   1.410       .  A
C589        C590   1.402       .  A
C589        H594   1.083       .  S
C590        C591   1.420       .  A
C591        C595   1.519       .  S
C591        C592   1.409       .  A
C592        H596   1.083       .  S
C593        F606   1.384       .  S
C593        F607   1.382       .  S
C593        F608   1.380       .  S
C595        F603   1.385       .  S
C595        F604   1.382       .  S
C595        F605   1.380       .  S
C609        C610   1.399       .  A
C609        C614   1.411       .  A
C609        H619   1.083       .  S
C610        C615   1.491       .  S
C610        C611   1.413       .  A
C611        C616   1.519       .  S
C611        C612   1.411       .  A
C612        C613   1.410       .  A
C612        H617   1.083       .  S
C613        C614   1.429       .  A
C614        C618   1.521       .  S
C615        C620   1.405       .  A
C615        C624   1.395       .  A
C616        F632   1.383       .  S
C616        F633   1.382       .  S
C616        F634   1.384       .  S
C618        F629   1.382       .  S
C618        F630   1.384       .  S
C618        F631   1.384       .  S
C620        C625   1.524       .  S
C620        C621   1.403       .  A
C621        C622   1.430       .  A
C621       H1618   1.078       .  S
C622       C1039   1.602       .  S
C622        C623   1.457       .  A
C623        C627   1.530       .  S
C623        C624   1.418       .  A
C624        H628   1.085       .  S
C625       F1630   1.384       .  S
C625       F1631   1.382       .  S
C625        F640   1.382       .  S
H626       C1613   1.078       .  S
C627        F635   1.382       .  S
F638       C1617   1.384       .  S
F639       C1617   1.382       .  S
C641        C642   1.400       .  A
C641        C646   1.409       .  A
C641        H651   1.083       .  S
C642        C647   1.487       .  S
C642        C643   1.415       .  A
C643        C648   1.517       .  S
C643        C644   1.406       .  A
C644        C645   1.406       .  A
C644        H649   1.082       .  S
C645        C646   1.427       .  A
C646        C650   1.520       .  S
C647        C652   1.407       .  A
C647        C656   1.389       .  A
C648        F664   1.378       .  S
C648        F665   1.381       .  S
C648        F666   1.384       .  S
C650        F661   1.385       .  S
C650        F662   1.382       .  S
C650        F663   1.382       .  S
C652        C657   1.519       .  S
C652        C653   1.412       .  A
C653        C654   1.423       .  A
C653        H658   1.074       .  S
C654        C655   1.456       .  A
C655        C659   1.536       .  S
C655        C656   1.407       .  A
C656        H660   1.083       .  S
C657        F670   1.385       .  S
C657        F671   1.382       .  S
C657        F672   1.381       .  S
C659        F667   1.379       .  S
C659       F1164   1.372   1_565  S
C659       F1661   1.386       .  S
F668       C1155   1.373   1_455  S
F669       C1651   1.385       .  S
C673        C674   1.404       .  A
C673        C678   1.408       .  A
C673        H683   1.083       .  S
C674        C679   1.478       .  S
C674        C675   1.415       .  A
C675        C680   1.521       .  S
C675        C676   1.401       .  A
C676        C677   1.400       .  A
C676        H681   1.084       .  S
C677        C678   1.413       .  A
C678        C682   1.516       .  S
C679        C684   1.403       .  A
C679        C688   1.386       .  A
C680        F696   1.382       .  S
C680        F697   1.381       .  S
C680        F698   1.384       .  S
C682        F693   1.385       .  S
C682        F694   1.382       .  S
C682        F695   1.384       .  S
C684        C689   1.516       .  S
C684        C685   1.406       .  A
C685        C686   1.428       .  A
C685        H690   1.078       .  S
C686       C1536   1.589       .  S
C686        C687   1.455       .  A
C687        C688   1.402       .  A
C688        H692   1.087       .  S
C689        F702   1.385       .  S
C689        F703   1.383       .  S
C689        F704   1.382       .  S
C691        F699   1.386       .  S
C691        F700   1.364       .  S
C691        F701   1.381       .  S
C705        C706   1.402       .  A
C705        C710   1.403       .  A
C705        H715   1.083       .  S
C706        C711   1.487       .  S
C706        C707   1.417       .  A
C707        C712   1.518       .  S
C707        C708   1.412       .  A
C708        C709   1.404       .  A
C708        H713   1.083       .  S
C709        C710   1.414       .  A
C710        C714   1.518       .  S
C711        C716   1.407       .  A
C711        C720   1.392       .  A
C712        F728   1.382       .  S
C712        F729   1.383       .  S
C712        F730   1.385       .  S
C714        F725   1.381       .  S
C714        F726   1.385       .  S
C714        F727   1.382       .  S
C716        C721   1.519       .  S
C716        C717   1.403       .  A
C717        C718   1.425       .  A
C717       H1714   1.073       .  S
C718        C719   1.456       .  A
C719        C723   1.532       .  S
C719        C720   1.412       .  A
C720        H724   1.084       .  S
C721       F1726   1.384       .  S
C721        F735   1.383       .  S
C721        F736   1.383       .  S
H722       C1709   1.072       .  S
C723        F733   1.386       .  S
F734       C1713   1.384       .  S
C737       C1234   1.390   1_565  A
C737        C742   1.411       .  A
C737        H747   1.086       .  S
C738        C743   1.490       .  S
C738       C1233   1.389   1_455  A
C738        C739   1.407       .  A
C739        C744   1.519       .  S
C739        C740   1.409       .  A
C740       C1733   1.427   1_455  A
C740        H745   1.082       .  S
C741       C1732   1.427       .  A
C742        C746   1.541       .  S
C743       C1740   1.405       .  A
C744        F760   1.382       .  S
C744        F761   1.382       .  S
C744        F762   1.385       .  S
C746        F757   1.371       .  S
C746        F758   1.386       .  S
C746        F759   1.382       .  S
C748        C753   1.525       .  S
C748       C1735   1.406       .  A
C748        C749   1.400       .  A
C749        C750   1.431       .  A
C749        H754   1.074       .  S
C750       C1247   1.455       .  A
C751        C755   1.532       .  S
C751       C1246   1.456       .  A
C751        C752   1.417       .  A
C752        H756   1.083       .  S
C753        F766   1.385       .  S
C753        F767   1.380       .  S
C753       F1760   1.381       .  S
C755       F1755   1.375       .  S
C755        F764   1.372       .  S
C755        F765   1.386       .  S
F763       C1747   1.375       .  S
F768       C1745   1.382       .  S
C769       C1762   1.401       .  A
C769        C774   1.421       .  A
C769        H779   1.082       .  S
C770        C775   1.495   1_556  S
C770       C1761   1.397       .  A
C771        C776   1.523       .  S
C771        C772   1.406       .  A
C772        C773   1.422   1_665  A
C772        H777   1.075       .  S
C773       C1270   1.449       .  A
C774        C778   1.531       .  S
C774       C1269   1.448       .  A
C775        C780   1.405       .  A
C775       C1280   1.392   1_455  A
C776        F792   1.381       .  S
C776        F794   1.385       .  S
C778        F789   1.381       .  S
C778        F791   1.375       .  S
C780        C785   1.520       .  S
C780        C781   1.407       .  A
C781        H786   1.081       .  S
C782       C1775   1.462       .  A
C783        C787   1.538       .  S
C783       C1774   1.461       .  A
C783        C784   1.417       .  A
C784       C1271   1.395   1_565  A
C784        H788   1.086       .  S
C785        F798   1.384       .  S
C785        F799   1.382       .  S
C785        F800   1.383       .  S
C787        F795   1.382       .  S
C787        F796   1.364       .  S
C787        F797   1.386       .  S
C801        C802   1.399       .  A
C801        C806   1.409       .  A
C801        H811   1.083       .  S
C802        C807   1.486       .  S
C802        C803   1.416       .  A
C803        C808   1.519   1_455  S
C803        C804   1.406       .  A
C804        C805   1.408       .  A
C804        H809   1.084       .  S
C805        C806   1.429       .  A
C806        C810   1.521       .  S
C807        C812   1.402       .  A
C807        C816   1.388       .  A
C808       F1816   1.383       .  S
C808        F825   1.382       .  S
C808        F826   1.384       .  S
C810        F821   1.385       .  S
C810        F822   1.383       .  S
C810        F823   1.381       .  S
C812        C817   1.518       .  S
C812        C813   1.409       .  A
C813        C814   1.430       .  A
C813        H818   1.073       .  S
C814       C1016   1.620   1_465  S
C814        C815   1.459       .  A
C815       C1811   1.530   1_455  S
C815        C816   1.409       .  A
C816        H820   1.083       .  S
C817        F830   1.385       .  S
C817        F831   1.383       .  S
C817        F832   1.383       .  S
C819       C1807   1.530       .  S
C819       F1819   1.386       .  S
C819        F828   1.365   1_565  S
C819        F829   1.377       .  S
F824       C1800   1.382       .  S
F827       C1811   1.386       .  S
C833        C834   1.387       .  A
C833        C838   1.408       .  A
C833        H843   1.082       .  S
C834        C839   1.477       .  S
C834        C835   1.400       .  A
C835        C840   1.518       .  S
C835        C836   1.405       .  A
C836        C837   1.430       .  A
C836        H841   1.082       .  S
C837        C838   1.459       .  A
C839        C844   1.416       .  A
C839        C848   1.397       .  A
C840        F856   1.382       .  S
C840        F857   1.384       .  S
C840        F858   1.384       .  S
C842        F853   1.386       .  S
C842        F854   1.362       .  S
C842        F855   1.372       .  S
C844        C849   1.518       .  S
C844        C845   1.404       .  A
C845        C846   1.406       .  A
C845        H850   1.083       .  S
C846        C847   1.429       .  A
C847        C851   1.524       .  S
C847        C848   1.402       .  A
C848        H852   1.083       .  S
C849        F862   1.383       .  S
C849        F863   1.383       .  S
C849        F864   1.383       .  S
C851        F859   1.385       .  S
C851        F860   1.382       .  S
C851        F861   1.383       .  S
C865        C866   1.396       .  A
C865        C870   1.419       .  A
C865        H875   1.083       .  S
C866        C871   1.488       .  S
C866        C867   1.406       .  A
C867        C872   1.521       .  S
C867        C868   1.406       .  A
C868        C869   1.427       .  A
C868        H873   1.073       .  S
C869       C1512   1.607   1_455  S
C869        C870   1.452       .  A
C870        C874   1.530       .  S
C871        C876   1.417       .  A
C871        C880   1.404       .  A
C872        F888   1.383       .  S
C872        F889   1.382       .  S
C872        F890   1.385       .  S
C874       F1877   1.385       .  S
C874        F886   1.379       .  S
C874        F887   1.368   1_455  S
C876        C881   1.514       .  S
C876        C877   1.398       .  A
C877        C878   1.400       .  A
C877        H882   1.083       .  S
C878        C879   1.422       .  A
C879        C883   1.520       .  S
C879        C880   1.412       .  A
C880        H884   1.083       .  S
C881        F894   1.385       .  S
C881        F895   1.380   1_455  S
C881        F896   1.381       .  S
C883        F891   1.385       .  S
C883        F892   1.384       .  S
C883        F893   1.383       .  S
F885       C1866   1.385       .  S
C897        C898   1.401       .  A
C897        C902   1.408       .  A
C897        H907   1.083       .  S
C898        C903   1.484       .  S
C898        C899   1.418       .  A
C899        C904   1.517       .  S
C899        C900   1.404       .  A
C900        C901   1.400       .  A
C900        H905   1.083       .  S
C901        C902   1.417       .  A
C902        C906   1.514       .  S
C903        C908   1.404       .  A
C903        C912   1.396       .  A
C904        F920   1.382   1_455  S
C904        F921   1.380       .  S
C904        F922   1.385       .  S
C906        F917   1.383       .  S
C906        F918   1.384       .  S
C906        F919   1.382       .  S
C908        C909   1.403       .  A
C909        C910   1.429       .  A
C910        C911   1.447       .  A
C911       C1907   1.527   1_455  S
C911        C912   1.415       .  A
C912        H916   1.083       .  S
C913        F926   1.384       .  S
C915       C1903   1.526       .  S
C915        F923   1.385       .  S
C915        F924   1.379       .  S
C915        F925   1.370       .  S
C929        C930   1.401       .  A
C929        C934   1.408       .  A
C929        H939   1.085       .  S
C930        C935   1.485       .  S
C930        C931   1.414       .  A
C931        C936   1.518       .  S
C931        C932   1.401       .  A
C932        C933   1.405       .  A
C932        H937   1.083       .  S
C933        C934   1.424       .  A
C934        C938   1.517       .  S
C935        C940   1.403       .  A
C935        C944   1.393       .  A
C936        F952   1.382   1_565  S
C936        F953   1.381       .  S
C936        F954   1.385       .  S
C938        F949   1.383       .  S
C938        F950   1.384       .  S
C938        F951   1.375       .  S
C940        C945   1.523       .  S
C940        C941   1.404       .  A
C941        C942   1.425       .  A
C941        H946   1.065       .  S
C942       C1015   1.580       .  S
C942        C943   1.455       .  A
C943        C944   1.412       .  A
C944        H948   1.084       .  S
C945        F958   1.384       .  S
C945        F959   1.383       .  S
C945        F960   1.382       .  S
C947        F955   1.385       .  S
C947        F956   1.372       .  S
C947        F957   1.381       .  S
C961        C962   1.388       .  A
C961        C966   1.405       .  A
C961        H971   1.086       .  S
C962        C967   1.487       .  S
C962        C963   1.406       .  A
C963        C968   1.520       .  S
C963        C964   1.412       .  A
C964        C965   1.429       .  A
C964        H969   1.071       .  S
C965        C966   1.454       .  A
C966        C970   1.527       .  S
C967        C972   1.415       .  A
C967        C976   1.397       .  A
C968        F984   1.382       .  S
C968        F985   1.381       .  S
C968        F986   1.384       .  S
C970        F981   1.379   1_455  S
C970        F982   1.386       .  S
C970        F983   1.365   1_455  S
C972        C977   1.519       .  S
C972        C973   1.411       .  A
C973        C974   1.410       .  A
C973        H978   1.082       .  S
C974        C975   1.431       .  A
C975        C979   1.523       .  S
C975        C976   1.405       .  A
C976        H980   1.083       .  S
C977        F990   1.384   1_455  S
C977        F991   1.382   1_455  S
C977        F992   1.381   1_455  S
C979        F987   1.383       .  S
C979        F988   1.380       .  S
C979        F989   1.385       .  S
O993       C1008   1.262       .  A
O993      Al1001   1.908       .  S
C994       O1004   1.262       .  A
C994        O995   1.265       .  A
C994       C1429   1.487       .  S
O995       Al997   1.919       .  S
O996        C998   1.260       .  A
O996       Al997   1.899       .  S
Al997      O1005   1.911       .  S
Al997      O1007   1.925       .  S
Al997      O1006   1.784       .  S
C998       O1011   1.261       .  A
C998       C1397   1.477       .  S
O999       C1009   1.263       .  A
O999      Al1001   1.916       .  S
O1000      C1013   1.258       .  A
O1000     Al1010   1.894       .  S
Al1001     O1014   1.905       .  S
Al1001     O1011   1.906       .  S
Al1001     O1006   1.786       .  S
O1002      C1009   1.255       .  A
O1002     Al1010   1.896       .  S
O1003      C1012   1.254       .  A
O1003     Al1010   1.886       .  S
O1004     Al1010   1.904       .  S
O1005      C1012   1.264       .  A
O1006     Al1010   1.789       .  S
O1007      C1008   1.262       .  A
C1008      C1301   1.505       .  S
C1009      C1470   1.499       .  S
C1012      C1342   1.485       .  S
C1013      O1014   1.264       .  A
C1013      C1374   1.485       .  S
C1015      C1774   1.597       .  S
C1015      C1902   1.609       .  S
C1015      C1461   1.596   1_565  S
C1016      C1237   1.592       .  S
C1016      C1829   1.577   1_545  S
O1017      C1032   1.263       .  A
O1017     Al1025   1.901       .  S
C1018      O1028   1.255       .  A
C1018      O1019   1.264       .  A
C1018      C1173   1.472       .  S
O1019     Al1021   1.922       .  S
O1020      C1022   1.255       .  A
O1020     Al1021   1.904       .  S
Al1021     O1029   1.900       .  S
Al1021     O1031   1.935       .  S
Al1021     O1030   1.790       .  S
C1022      O1035   1.255       .  A
C1022      C1205   1.477       .  S
O1023      C1033   1.265       .  A
O1023     Al1025   1.906       .  S
O1024      C1037   1.256       .  A
O1024     Al1034   1.897       .  S
Al1025     O1038   1.914       .  S
Al1025     O1035   1.904       .  S
Al1025     O1030   1.791       .  S
O1026      C1033   1.261       .  A
O1026     Al1034   1.913       .  S
O1027      C1036   1.257       .  A
O1027     Al1034   1.898       .  S
O1028     Al1034   1.870       .  S
O1029      C1036   1.257       .  A
O1030     Al1034   1.793       .  S
O1031      C1032   1.271       .  A
C1032      C1109   1.500       .  S
C1033      C1141   1.494       .  S
C1036      C1086   1.478       .  S
C1037      O1038   1.259       .  A
C1037      C1054   1.474       .  S
C1039      C1573   1.607       .  S
C1039      C1269   1.577       .  S
C1040      C1646   1.574   1_455  S
C1040      C1214   1.600   1_465  S
C1040      C1246   1.611       .  S
C1041      C1042   1.388       .  A
C1041      C1046   1.415       .  A
C1041      H1051   1.083       .  S
C1042      C1047   1.483       .  S
C1042      C1043   1.400       .  A
C1043      C1048   1.523   1_655  S
C1043      C1044   1.403   1_655  A
C1044      C1045   1.433   1_455  A
C1045      C1046   1.463       .  A
C1046      C1050   1.537       .  S
C1047      C1052   1.418       .  A
C1047      C1056   1.402       .  A
C1048      F1064   1.383   1_455  S
C1048      F1065   1.382       .  S
C1050      F1061   1.386       .  S
C1050      F1062   1.373       .  S
C1050      F1063   1.371       .  S
C1052      C1057   1.518       .  S
C1052      C1053   1.408       .  A
C1053      C1054   1.403       .  A
C1053      H1058   1.085       .  S
C1054      C1055   1.414       .  A
C1055      C1059   1.518       .  S
C1055      C1056   1.403       .  A
C1056      H1060   1.084       .  S
C1057      F1070   1.382       .  S
C1057      F1071   1.383       .  S
C1057      F1072   1.383       .  S
C1059      F1067   1.385       .  S
C1059      F1068   1.382       .  S
C1059      F1069   1.382       .  S
C1073      C1074   1.393       .  A
C1073      C1078   1.417       .  A
C1073      H1083   1.082       .  S
C1074      C1079   1.488       .  S
C1074      C1075   1.404       .  A
C1075      C1080   1.525       .  S
C1075      C1076   1.405       .  A
C1076      C1077   1.428       .  A
C1076      H1081   1.072       .  S
C1077      C1535   1.607       .  S
C1077      C1078   1.457       .  A
C1078      C1578   1.532   1_545  S
C1079      C1084   1.417       .  A
C1079      C1088   1.402       .  A
C1080      F1096   1.383       .  S
C1080      F1097   1.380       .  S
C1080      F1098   1.385       .  S
C1082      C1574   1.531       .  S
C1082      F1589   1.380       .  S
C1082      F1094   1.385       .  S
C1082      F1095   1.376       .  S
C1084      C1089   1.519       .  S
C1084      C1085   1.409       .  A
C1085      C1086   1.403       .  A
C1085      H1090   1.083       .  S
C1086      C1087   1.418       .  A
C1087      C1091   1.519       .  S
C1087      C1088   1.407       .  A
C1088      H1092   1.083       .  S
C1089      F1102   1.385       .  S
C1089      F1103   1.382       .  S
C1089      F1104   1.380       .  S
C1091      F1099   1.385       .  S
C1091      F1100   1.383       .  S
C1091      F1101   1.382       .  S
F1093      C1578   1.380   1_545  S
C1105      C1106   1.400       .  A
C1105      C1110   1.411       .  A
C1105      H1115   1.083       .  S
C1106      C1111   1.494       .  S
C1106      C1107   1.415       .  A
C1107      C1112   1.519       .  S
C1107      C1108   1.410       .  A
C1108      C1109   1.409       .  A
C1108      H1113   1.083       .  S
C1109      C1110   1.428       .  A
C1110      C1114   1.520       .  S
C1111      C1116   1.406       .  A
C1111      C1120   1.396       .  A
C1112      F1128   1.383       .  S
C1112      F1129   1.383   1_545  S
C1112      F1130   1.384       .  S
C1114      F1125   1.383       .  S
C1114      F1126   1.385   1_655  S
C1114      F1127   1.383       .  S
C1116      C1121   1.523       .  S
C1116      C1117   1.403       .  A
C1117      C1118   1.429       .  A
C1118      C1119   1.458       .  A
C1119      C1123   1.531       .  S
C1119      C1120   1.418       .  A
C1120      H1124   1.086       .  S
C1121      F1136   1.382       .  S
C1123      F1131   1.382       .  S
C1123      F1628   1.364       .  S
C1123      F1629   1.386       .  S
F1132      C1619   1.365       .  S
F1133      C1619   1.386       .  S
C1137      C1138   1.399       .  A
C1137      C1142   1.409       .  A
C1137      H1147   1.083       .  S
C1138      C1143   1.487       .  S
C1138      C1139   1.416       .  A
C1139      C1144   1.516       .  S
C1139      C1140   1.405       .  A
C1140      C1141   1.405       .  A
C1140      H1145   1.082       .  S
C1141      C1142   1.428       .  A
C1142      C1146   1.520       .  S
C1143      C1148   1.407       .  A
C1143      C1152   1.391       .  A
C1144      F1160   1.377   1_655  S
C1144      F1161   1.381       .  S
C1144      F1162   1.385       .  S
C1146      F1157   1.385       .  S
C1146      F1158   1.382       .  S
C1146      F1159   1.382       .  S
C1148      C1153   1.518       .  S
C1148      C1149   1.412       .  A
C1149      C1150   1.422       .  A
C1149      H1154   1.075       .  S
C1150      C1536   1.572   1_655  S
C1150      C1151   1.454       .  A
C1151      C1155   1.536       .  S
C1151      C1152   1.409       .  A
C1152      H1156   1.083       .  S
C1153      F1166   1.384       .  S
C1153      F1167   1.383       .  S
C1153      F1168   1.381       .  S
C1155      F1163   1.379       .  S
C1169      C1170   1.405       .  A
C1169      C1174   1.408       .  A
C1169      H1179   1.083       .  S
C1170      C1175   1.481       .  S
C1170      C1171   1.416       .  A
C1171      C1176   1.519       .  S
C1171      C1172   1.403       .  A
C1172      C1173   1.402       .  A
C1172      H1177   1.084       .  S
C1173      C1174   1.413       .  A
C1174      C1178   1.516       .  S
C1175      C1180   1.407       .  A
C1175      C1184   1.388       .  A
C1176      F1192   1.382       .  S
C1176      F1193   1.379       .  S
C1176      F1194   1.385       .  S
C1178      F1189   1.384       .  S
C1178      F1190   1.382       .  S
C1178      F1191   1.384       .  S
C1180      C1185   1.517       .  S
C1180      C1181   1.410       .  A
C1181      C1182   1.429       .  A
C1181      H1186   1.080       .  S
C1182      C1183   1.450       .  A
C1183      C1683   1.524   1_545  S
C1183      C1184   1.401       .  A
C1184      H1188   1.087       .  S
C1185      F1198   1.385       .  S
C1185      F1199   1.383       .  S
C1185      F1200   1.380       .  S
C1187      C1679   1.521       .  S
C1187      F1195   1.387       .  S
C1187      F1196   1.363       .  S
C1187      F1197   1.381       .  S
C1201      C1202   1.401       .  A
C1201      C1206   1.404       .  A
C1201      H1211   1.083       .  S
C1202      C1207   1.486       .  S
C1202      C1203   1.416       .  A
C1203      C1208   1.516       .  S
C1203      C1204   1.412       .  A
C1204      C1205   1.404       .  A
C1204      H1209   1.083       .  S
C1205      C1206   1.416       .  A
C1206      C1210   1.517       .  S
C1207      C1212   1.408       .  A
C1207      C1216   1.391       .  A
C1208      F1224   1.383       .  S
C1208      F1225   1.383       .  S
C1208      F1226   1.384       .  S
C1210      F1221   1.381       .  S
C1210      F1222   1.384       .  S
C1210      F1223   1.383       .  S
C1212      C1217   1.521   1_655  S
C1212      C1213   1.407   1_655  A
C1213      C1214   1.427   1_455  A
C1214      C1215   1.458       .  A
C1215      C1219   1.533   1_545  S
C1215      C1216   1.413       .  A
C1216      H1220   1.084       .  S
C1217      F1231   1.383       .  S
C1217      F1232   1.381       .  S
C1219      F1723   1.381       .  S
C1219      F1724   1.373       .  S
C1219      F1229   1.386       .  S
F1227      C1715   1.381       .  S
F1228      C1715   1.374       .  S
C1233      C1238   1.409       .  A
C1233      H1243   1.085       .  S
C1234      C1239   1.497       .  S
C1234      C1235   1.409       .  A
C1235      C1240   1.519       .  S
C1235      C1236   1.410       .  A
C1236      H1241   1.082       .  S
C1237      C1734   1.460   1_545  A
C1238      C1242   1.541       .  S
C1238      C1733   1.463       .  A
C1239      C1744   1.391   1_545  A
C1240      F1256   1.382       .  S
C1240      F1257   1.383       .  S
C1240      F1258   1.385       .  S
C1242      F1253   1.371       .  S
C1242      F1254   1.387       .  S
C1242      F1255   1.382       .  S
C1244      C1249   1.524   1_455  S
C1244      C1245   1.404       .  A
C1245      C1246   1.431   1_545  A
C1245      H1250   1.074       .  S
C1247      C1251   1.532       .  S
C1247      C1248   1.418       .  A
C1248      C1735   1.394       .  A
C1248      H1252   1.083       .  S
C1249      F1262   1.385       .  S
C1249      F1263   1.381       .  S
C1251      F1260   1.374       .  S
C1251      F1261   1.386       .  S
C1265      C1270   1.417       .  A
C1265      H1275   1.082       .  S
C1266      C1271   1.503   1_556  S
C1266      C1763   1.411   1_545  A
C1267      C1272   1.524       .  S
C1267      C1762   1.409       .  A
C1267      C1268   1.404       .  A
C1268      C1269   1.420       .  A
C1268      H1273   1.073       .  S
C1270      C1274   1.531       .  S
C1271      C1276   1.408       .  A
C1272      F1288   1.380       .  S
C1272      F1785   1.382   1_556  S
C1272      F1290   1.385       .  S
C1274      F1285   1.381       .  S
C1274      F1782   1.385       .  S
C1274      F1287   1.374       .  S
C1276      C1281   1.519       .  S
C1276      C1277   1.410       .  A
C1277      C1774   1.428   1_545  A
C1277      H1282   1.080       .  S
C1278      C1511   1.596       .  S
C1278      C1773   1.431       .  A
C1279      C1283   1.543       .  S
C1279      C1280   1.415       .  A
C1280      H1284   1.085       .  S
C1281      F1294   1.384       .  S
C1281      F1295   1.382       .  S
C1281      F1296   1.383       .  S
C1283      F1291   1.381       .  S
C1283      F1292   1.366       .  S
C1283      F1293   1.387       .  S
F1286      C1770   1.385       .  S
F1289      C1768   1.383   1_554  S
C1297      C1298   1.402       .  A
C1297      C1302   1.412       .  A
C1297      H1307   1.083       .  S
C1298      C1303   1.497       .  S
C1298      C1299   1.418       .  A
C1299      C1304   1.521       .  S
C1299      C1300   1.412       .  A
C1300      C1301   1.410       .  A
C1300      H1305   1.082       .  S
C1301      C1302   1.427       .  A
C1302      C1306   1.519       .  S
C1303      C1308   1.407       .  A
C1303      C1312   1.391       .  A
C1304      F1321   1.381       .  S
C1304      F1322   1.385       .  S
C1306      F1317   1.385       .  S
C1306      F1318   1.383       .  S
C1306      F1319   1.382       .  S
C1308      C1313   1.520       .  S
C1308      C1309   1.415       .  A
C1309      C1310   1.429       .  A
C1309      H1314   1.073       .  S
C1310      C1311   1.458       .  A
C1311      C1312   1.413       .  A
C1312      H1316   1.083       .  S
C1313      F1326   1.384       .  S
C1313      F1327   1.382       .  S
C1313      F1328   1.381       .  S
C1315      F1324   1.365       .  S
C1315      F1325   1.376       .  S
C1329      C1330   1.388       .  A
C1329      C1334   1.408       .  A
C1329      H1339   1.083       .  S
C1330      C1335   1.476       .  S
C1330      C1331   1.401       .  A
C1331      C1336   1.518       .  S
C1331      C1332   1.402       .  A
C1332      C1333   1.428       .  A
C1332      H1337   1.082       .  S
C1333      C1512   1.578       .  S
C1333      C1334   1.457       .  A
C1334      C1834   1.523       .  S
C1335      C1340   1.414       .  A
C1335      C1344   1.398       .  A
C1336      F1352   1.382       .  S
C1336      F1353   1.383       .  S
C1336      F1354   1.384       .  S
C1338      C1830   1.521   1_545  S
C1338      F1349   1.386       .  S
C1338      F1350   1.359       .  S
C1338      F1351   1.372       .  S
C1340      C1345   1.517       .  S
C1340      C1341   1.403       .  A
C1341      C1342   1.405       .  A
C1341      H1346   1.084       .  S
C1342      C1343   1.428       .  A
C1343      C1347   1.524       .  S
C1343      C1344   1.403       .  A
C1344      H1348   1.083       .  S
C1345      F1358   1.383       .  S
C1345      F1359   1.383       .  S
C1345      F1360   1.383       .  S
C1347      F1355   1.385       .  S
C1347      F1356   1.382       .  S
C1347      F1357   1.383       .  S
C1361      C1362   1.395       .  A
C1361      C1366   1.421       .  A
C1361      H1371   1.082       .  S
C1362      C1367   1.492       .  S
C1362      C1363   1.405       .  A
C1363      C1368   1.522       .  S
C1363      C1364   1.408       .  A
C1364      C1365   1.428       .  A
C1364      H1369   1.072       .  S
C1365      C1366   1.454       .  A
C1366      C1370   1.530       .  S
C1367      C1372   1.417       .  A
C1367      C1376   1.405       .  A
C1368      F1384   1.383       .  S
C1368      F1385   1.383       .  S
C1368      F1386   1.385       .  S
C1370      F1382   1.379       .  S
C1370      F1383   1.367       .  S
C1372      C1377   1.514       .  S
C1372      C1373   1.398       .  A
C1373      C1374   1.401       .  A
C1373      H1378   1.083       .  S
C1374      C1375   1.422       .  A
C1375      C1379   1.519       .  S
C1375      C1376   1.413       .  A
C1376      H1380   1.083       .  S
C1377      F1390   1.385       .  S
C1377      F1391   1.381       .  S
C1377      F1392   1.381       .  S
C1379      F1387   1.384       .  S
C1379      F1388   1.384       .  S
C1379      F1389   1.383       .  S
C1393      C1394   1.401       .  A
C1393      C1398   1.407       .  A
C1393      H1403   1.083       .  S
C1394      C1399   1.482       .  S
C1394      C1395   1.416       .  A
C1395      C1400   1.519       .  S
C1395      C1396   1.405       .  A
C1396      C1397   1.404       .  A
C1396      H1401   1.084       .  S
C1397      C1398   1.417       .  A
C1398      C1402   1.516       .  S
C1399      C1404   1.405       .  A
C1399      C1408   1.398       .  A
C1400      F1416   1.382       .  S
C1400      F1417   1.380       .  S
C1400      F1418   1.385       .  S
C1402      F1413   1.382       .  S
C1402      F1414   1.385       .  S
C1402      F1415   1.382       .  S
C1404      C1905   1.522       .  S
C1404      C1405   1.402       .  A
C1405      C1406   1.428       .  A
C1405      H1906   1.077       .  S
C1406      C1511   1.603       .  S
C1406      C1407   1.441       .  A
C1407      C1408   1.414       .  A
C1408      H1412   1.083       .  S
C1409      C1900   1.520   1_545  S
C1409      F1422   1.384       .  S
C1409      F1919   1.383       .  S
C1409      F1920   1.382       .  S
H1410      C1901   1.077   1_545  S
C1411      F1419   1.385       .  S
C1411      F1420   1.379   1_655  S
C1411      F1421   1.369       .  S
F1423      C1905   1.382       .  S
F1424      C1905   1.382       .  S
C1425      C1426   1.402       .  A
C1425      C1430   1.408       .  A
C1425      H1435   1.085       .  S
C1426      C1431   1.489       .  S
C1426      C1427   1.415       .  A
C1427      C1432   1.518       .  S
C1427      C1428   1.405       .  A
C1428      C1429   1.407       .  A
C1428      H1433   1.083       .  S
C1429      C1430   1.423       .  A
C1430      C1434   1.517       .  S
C1431      C1436   1.406       .  A
C1431      C1440   1.393       .  A
C1432      F1448   1.382       .  S
C1432      F1449   1.381       .  S
C1432      F1450   1.384       .  S
C1434      F1445   1.383       .  S
C1434      F1446   1.384       .  S
C1434      F1447   1.378       .  S
C1436      C1441   1.522       .  S
C1436      C1437   1.406       .  A
C1437      C1438   1.426       .  A
C1437      H1442   1.071       .  S
C1438      C1439   1.453       .  A
C1439      C1939   1.529       .  S
C1439      C1440   1.410       .  A
C1440      H1444   1.085       .  S
C1441      F1454   1.384       .  S
C1441      F1455   1.382       .  S
C1441      F1456   1.382       .  S
C1443      C1935   1.529   1_545  S
C1443      F1451   1.385       .  S
C1443      F1452   1.374       .  S
C1443      F1453   1.381       .  S
C1457      C1458   1.387       .  A
C1457      C1462   1.404       .  A
C1457      H1467   1.086       .  S
C1458      C1463   1.485       .  S
C1458      C1459   1.406       .  A
C1459      C1464   1.520       .  S
C1459      C1460   1.411       .  A
C1460      C1461   1.428       .  A
C1460      H1465   1.071       .  S
C1461      C1462   1.454       .  A
C1462      C1466   1.528       .  S
C1463      C1468   1.414       .  A
C1463      C1472   1.397       .  A
C1464      F1480   1.382       .  S
C1464      F1481   1.381       .  S
C1464      F1482   1.385       .  S
C1466      F1477   1.378       .  S
C1466      F1478   1.386       .  S
C1466      F1479   1.366   1_545  S
C1468      C1473   1.519       .  S
C1468      C1469   1.410       .  A
C1469      C1470   1.410       .  A
C1469      H1474   1.082       .  S
C1470      C1471   1.431       .  A
C1471      C1475   1.523       .  S
C1471      C1472   1.405       .  A
C1472      H1476   1.083       .  S
C1473      F1486   1.385       .  S
C1473      F1487   1.382       .  S
C1473      F1488   1.381       .  S
C1475      F1483   1.384       .  S
C1475      F1484   1.380       .  S
C1475      F1485   1.385       .  S
O1489      C1504   1.263       .  A
O1489     Al1497   1.909       .  S
C1490      O1500   1.261       .  A
C1490      O1491   1.265       .  A
C1490      C1925   1.482       .  S
O1491     Al1493   1.910       .  S
O1492      C1494   1.260       .  A
O1492     Al1493   1.906       .  S
Al1493     O1501   1.917       .  S
Al1493     O1503   1.925       .  S
Al1493     O1502   1.784       .  S
C1494      O1507   1.263       .  A
C1494      C1893   1.484       .  S
O1495      C1505   1.262       .  A
O1495     Al1497   1.912       .  S
O1496      C1509   1.259       .  A
O1496     Al1506   1.894       .  S
Al1497     O1510   1.919       .  S
Al1497     O1507   1.915       .  S
Al1497     O1502   1.783       .  S
O1498      C1505   1.254       .  A
O1498     Al1506   1.896       .  S
O1499      C1508   1.253       .  A
O1499     Al1506   1.881       .  S
O1500     Al1506   1.904       .  S
O1501      C1508   1.265       .  A
O1502     Al1506   1.789       .  S
O1503      C1504   1.262       .  A
C1504      C1797   1.503       .  S
C1505      C1966   1.493       .  S
C1508      C1838   1.489       .  S
C1509      O1510   1.267       .  A
C1509      C1870   1.486       .  S
C1511      C1957   1.591       .  S
C1512      C1733   1.593       .  S
O1513      C1528   1.264       .  A
O1513     Al1521   1.900       .  S
C1514      O1524   1.255       .  A
C1514      O1515   1.263       .  A
C1514      C1669   1.469       .  S
O1515     Al1517   1.917       .  S
O1516      C1518   1.254       .  A
O1516     Al1517   1.900       .  S
Al1517     O1525   1.899       .  S
Al1517     O1527   1.936       .  S
Al1517     O1526   1.787       .  S
C1518      O1531   1.253       .  A
C1518      C1701   1.469       .  S
O1519      C1529   1.265       .  A
O1519     Al1521   1.904       .  S
O1520      C1533   1.257       .  A
O1520     Al1530   1.901       .  S
Al1521     O1534   1.903       .  S
Al1521     O1531   1.896       .  S
Al1521     O1526   1.790       .  S
O1522      C1529   1.264       .  A
O1522     Al1530   1.922       .  S
O1523      C1532   1.259       .  A
O1523     Al1530   1.908       .  S
O1524     Al1530   1.871       .  S
O1525      C1532   1.258       .  A
O1526     Al1530   1.788       .  S
O1527      C1528   1.272       .  A
C1528      C1605   1.499       .  S
C1529      C1637   1.490       .  S
C1532      C1582   1.481       .  S
C1533      O1534   1.256       .  A
C1533      C1550   1.467       .  S
C1535      C1765   1.580       .  S
C1536      C1710   1.599   1_455  S
C1536      C1742   1.608       .  S
C1537      C1538   1.389       .  A
C1537      C1542   1.415       .  A
C1537      H1547   1.080       .  S
C1538      C1543   1.485       .  S
C1538      C1539   1.401       .  A
C1539      C1544   1.524   1_655  S
C1539      C1540   1.403   1_655  A
C1540      C1541   1.433   1_455  A
C1541      C1542   1.462       .  A
C1542      C1546   1.537       .  S
C1543      C1548   1.418       .  A
C1543      C1552   1.402       .  A
C1544      F1560   1.382       .  S
C1544      F1561   1.383       .  S
C1546      F1557   1.386       .  S
C1546      F1558   1.374       .  S
C1546      F1559   1.370       .  S
C1548      C1553   1.518       .  S
C1548      C1549   1.409       .  A
C1549      C1550   1.401       .  A
C1549      H1554   1.083       .  S
C1550      C1551   1.413       .  A
C1551      C1555   1.518       .  S
C1551      C1552   1.402       .  A
C1552      H1556   1.083       .  S
C1553      F1566   1.385       .  S
C1553      F1567   1.382       .  S
C1553      F1568   1.382       .  S
C1555      F1563   1.384       .  S
C1555      F1564   1.382       .  S
C1555      F1565   1.382       .  S
C1569      C1570   1.391       .  A
C1569      C1574   1.415       .  A
C1569      H1579   1.082       .  S
C1570      C1575   1.488       .  S
C1570      C1571   1.404       .  A
C1571      C1576   1.523       .  S
C1571      C1572   1.406       .  A
C1572      C1573   1.428       .  A
C1572      H1577   1.073       .  S
C1573      C1574   1.459       .  A
C1575      C1580   1.416       .  A
C1575      C1584   1.402       .  A
C1576      F1592   1.383       .  S
C1576      F1593   1.380       .  S
C1576      F1594   1.385       .  S
C1578      F1590   1.385       .  S
C1578      F1591   1.376       .  S
C1580      C1585   1.519       .  S
C1580      C1581   1.410       .  A
C1581      C1582   1.403       .  A
C1581      H1586   1.083       .  S
C1582      C1583   1.420       .  A
C1583      C1587   1.519       .  S
C1583      C1584   1.408       .  A
C1584      H1588   1.083       .  S
C1585      F1598   1.385       .  S
C1585      F1599   1.382       .  S
C1585      F1600   1.381       .  S
C1587      F1595   1.385       .  S
C1587      F1596   1.383       .  S
C1587      F1597   1.382       .  S
C1601      C1602   1.399       .  A
C1601      C1606   1.411       .  A
C1601      H1611   1.083       .  S
C1602      C1607   1.491       .  S
C1602      C1603   1.414       .  A
C1603      C1608   1.519       .  S
C1603      C1604   1.409       .  A
C1604      C1605   1.409       .  A
C1604      H1609   1.083       .  S
C1605      C1606   1.428       .  A
C1606      C1610   1.520       .  S
C1607      C1612   1.406       .  A
C1607      C1616   1.394       .  A
C1608      F1624   1.383       .  S
C1608      F1625   1.382       .  S
C1608      F1626   1.385       .  S
C1610      F1621   1.382       .  S
C1610      F1622   1.385   1_655  S
C1610      F1623   1.383       .  S
C1612      C1617   1.522       .  S
C1612      C1613   1.403       .  A
C1613      C1614   1.428       .  A
C1614      C1615   1.459       .  A
C1615      C1619   1.532       .  S
C1615      C1616   1.417       .  A
C1616      H1620   1.085       .  S
C1617      F1632   1.382       .  S
C1619      F1627   1.382       .  S
C1633      C1634   1.400       .  A
C1633      C1638   1.408       .  A
C1633      H1643   1.083       .  S
C1634      C1639   1.488       .  S
C1634      C1635   1.417       .  A
C1635      C1640   1.514       .  S
C1635      C1636   1.404       .  A
C1636      C1637   1.404       .  A
C1636      H1641   1.083       .  S
C1637      C1638   1.424       .  A
C1638      C1642   1.518       .  S
C1639      C1644   1.408       .  A
C1639      C1648   1.391       .  A
C1640      F1656   1.380   1_655  S
C1640      F1657   1.382   1_655  S
C1640      F1658   1.385   1_655  S
C1642      F1653   1.385       .  S
C1642      F1654   1.382       .  S
C1642      F1655   1.383       .  S
C1644      C1649   1.518       .  S
C1644      C1645   1.411       .  A
C1645      C1646   1.421       .  A
C1645      H1650   1.074       .  S
C1646      C1647   1.454       .  A
C1647      C1651   1.536       .  S
C1647      C1648   1.410       .  A
C1648      H1652   1.083       .  S
C1649      F1662   1.385       .  S
C1649      F1663   1.382       .  S
C1649      F1664   1.382       .  S
C1651      F1659   1.379       .  S
C1665      C1666   1.405       .  A
C1665      C1670   1.407       .  A
C1665      H1675   1.083       .  S
C1666      C1671   1.477       .  S
C1666      C1667   1.415       .  A
C1667      C1672   1.521       .  S
C1667      C1668   1.402       .  A
C1668      C1669   1.402       .  A
C1668      H1673   1.084       .  S
C1669      C1670   1.413       .  A
C1670      C1674   1.517       .  S
C1671      C1676   1.404       .  A
C1671      C1680   1.386       .  A
C1672      F1688   1.382       .  S
C1672      F1689   1.380       .  S
C1672      F1690   1.385       .  S
C1674      F1685   1.385       .  S
C1674      F1686   1.382       .  S
C1674      F1687   1.383       .  S
C1676      C1681   1.518       .  S
C1676      C1677   1.409       .  A
C1677      C1678   1.430       .  A
C1677      H1682   1.078       .  S
C1678      C1679   1.450       .  A
C1679      C1680   1.401       .  A
C1680      H1684   1.087       .  S
C1681      F1694   1.384       .  S
C1681      F1695   1.383       .  S
C1681      F1696   1.381       .  S
C1683      F1691   1.386       .  S
C1683      F1692   1.365       .  S
C1683      F1693   1.382       .  S
C1697      C1698   1.403       .  A
C1697      C1702   1.403       .  A
C1697      H1707   1.083       .  S
C1698      C1703   1.485       .  S
C1698      C1699   1.417       .  A
C1699      C1704   1.517       .  S
C1699      C1700   1.409       .  A
C1700      C1701   1.401       .  A
C1700      H1705   1.083       .  S
C1701      C1702   1.414       .  A
C1702      C1706   1.519       .  S
C1703      C1708   1.406       .  A
C1703      C1712   1.391       .  A
C1704      F1720   1.381       .  S
C1704      F1721   1.383       .  S
C1704      F1722   1.385       .  S
C1706      F1717   1.381       .  S
C1706      F1718   1.384       .  S
C1706      F1719   1.383       .  S
C1708      C1713   1.520   1_655  S
C1708      C1709   1.405   1_655  A
C1709      C1710   1.427   1_455  A
C1710      C1711   1.457       .  A
C1711      C1715   1.531       .  S
C1711      C1712   1.411       .  A
C1712      H1716   1.084       .  S
C1713      F1727   1.383       .  S
C1713      F1728   1.383       .  S
C1715      F1725   1.386       .  S
C1729      C1734   1.410       .  A
C1729      H1739   1.085       .  S
C1730      C1735   1.491       .  S
C1730      C1731   1.407       .  A
C1731      C1736   1.519       .  S
C1731      C1732   1.409       .  A
C1732      H1737   1.082       .  S
C1734      C1738   1.540       .  S
C1736      F1752   1.382       .  S
C1736      F1753   1.383       .  S
C1736      F1754   1.384       .  S
C1738      F1749   1.371       .  S
C1738      F1750   1.386       .  S
C1738      F1751   1.382       .  S
C1740      C1745   1.523       .  S
C1740      C1741   1.403       .  A
C1741      C1742   1.432       .  A
C1741      H1746   1.075       .  S
C1743      C1747   1.532       .  S
C1743      C1744   1.417       .  A
C1744      H1748   1.083       .  S
C1745      F1758   1.385       .  S
C1745      F1759   1.381   1_455  S
C1747      F1756   1.372       .  S
C1747      F1757   1.387       .  S
C1761      C1766   1.416       .  A
C1761      H1771   1.081       .  S
C1762      C1767   1.497   1_556  S
C1763      C1768   1.522       .  S
C1763      C1764   1.407       .  A
C1764      C1765   1.419   1_565  A
C1764      H1769   1.074       .  S
C1766      C1770   1.530       .  S
C1767      C1772   1.406       .  A
C1768      F1784   1.381       .  S
C1768      F1786   1.384       .  S
C1770      F1781   1.381       .  S
C1770      F1783   1.374       .  S
C1772      C1777   1.521       .  S
C1772      C1773   1.408       .  A
C1773      H1778   1.080       .  S
C1775      C1779   1.539       .  S
C1775      C1776   1.416       .  A
C1776      H1780   1.085       .  S
C1777      F1790   1.385       .  S
C1777      F1791   1.381       .  S
C1777      F1792   1.383       .  S
C1779      F1787   1.381       .  S
C1779      F1788   1.364       .  S
C1779      F1789   1.387       .  S
C1793      C1794   1.401       .  A
C1793      C1798   1.412       .  A
C1793      H1803   1.083       .  S
C1794      C1799   1.495       .  S
C1794      C1795   1.418       .  A
C1795      C1800   1.520       .  S
C1795      C1796   1.410       .  A
C1796      C1797   1.408       .  A
C1796      H1801   1.083       .  S
C1797      C1798   1.426       .  A
C1798      C1802   1.517       .  S
C1799      C1804   1.407       .  A
C1799      C1808   1.389       .  A
C1800      F1817   1.382       .  S
C1800      F1818   1.385       .  S
C1802      F1813   1.385       .  S
C1802      F1814   1.382       .  S
C1802      F1815   1.381       .  S
C1804      C1809   1.520       .  S
C1804      C1805   1.414       .  A
C1805      C1806   1.429       .  A
C1805      H1810   1.074       .  S
C1806      C1807   1.458       .  A
C1807      C1808   1.410       .  A
C1808      H1812   1.083       .  S
C1809      F1822   1.385       .  S
C1809      F1823   1.382       .  S
C1809      F1824   1.382       .  S
C1811      F1820   1.364   1_565  S
C1811      F1821   1.378       .  S
C1825      C1826   1.386       .  A
C1825      C1830   1.406       .  A
C1825      H1835   1.082       .  S
C1826      C1831   1.477       .  S
C1826      C1827   1.402       .  A
C1827      C1832   1.518       .  S
C1827      C1828   1.403       .  A
C1828      C1829   1.428       .  A
C1828      H1833   1.082       .  S
C1829      C1830   1.456       .  A
C1831      C1836   1.414       .  A
C1831      C1840   1.396       .  A
C1832      F1848   1.381       .  S
C1832      F1849   1.383       .  S
C1832      F1850   1.385       .  S
C1834      F1845   1.386       .  S
C1834      F1846   1.361       .  S
C1834      F1847   1.372       .  S
C1836      C1841   1.518       .  S
C1836      C1837   1.403       .  A
C1837      C1838   1.405       .  A
C1837      H1842   1.080       .  S
C1838      C1839   1.430       .  A
C1839      C1843   1.524       .  S
C1839      C1840   1.403       .  A
C1840      H1844   1.083       .  S
C1841      F1854   1.385       .  S
C1841      F1855   1.382       .  S
C1841      F1856   1.383       .  S
C1843      F1851   1.385       .  S
C1843      F1852   1.383       .  S
C1843      F1853   1.383       .  S
C1857      C1858   1.398       .  A
C1857      C1862   1.423       .  A
C1857      H1867   1.083       .  S
C1858      C1863   1.493       .  S
C1858      C1859   1.406       .  A
C1859      C1864   1.522       .  S
C1859      C1860   1.408       .  A
C1860      C1861   1.428       .  A
C1860      H1865   1.073       .  S
C1861      C1862   1.453       .  A
C1862      C1866   1.531       .  S
C1863      C1868   1.419       .  A
C1863      C1872   1.405       .  A
C1864      F1880   1.383       .  S
C1864      F1881   1.382       .  S
C1864      F1882   1.384       .  S
C1866      F1878   1.379       .  S
C1866      F1879   1.369       .  S
C1868      C1873   1.517       .  S
C1868      C1869   1.402       .  A
C1869      C1870   1.401       .  A
C1869      H1874   1.083       .  S
C1870      C1871   1.422       .  A
C1871      C1875   1.519       .  S
C1871      C1872   1.413       .  A
C1872      H1876   1.083       .  S
C1873      F1886   1.385       .  S
C1873      F1887   1.380       .  S
C1873      F1888   1.380       .  S
C1875      F1883   1.385       .  S
C1875      F1884   1.384       .  S
C1875      F1885   1.383       .  S
C1889      C1890   1.404       .  A
C1889      C1894   1.412       .  A
C1889      H1899   1.083       .  S
C1890      C1895   1.493       .  S
C1890      C1891   1.418       .  A
C1891      C1896   1.517       .  S
C1891      C1892   1.406       .  A
C1892      C1893   1.400       .  A
C1892      H1897   1.083       .  S
C1893      C1894   1.419       .  A
C1894      C1898   1.515       .  S
C1895      C1900   1.405       .  A
C1895      C1904   1.398       .  A
C1896      F1912   1.382       .  S
C1896      F1913   1.380       .  S
C1896      F1914   1.385       .  S
C1898      F1909   1.383       .  S
C1898      F1910   1.385       .  S
C1898      F1911   1.381       .  S
C1900      C1901   1.407       .  A
C1901      C1902   1.430       .  A
C1902      C1903   1.446       .  A
C1903      C1904   1.418       .  A
C1904      H1908   1.083       .  S
C1905      F1918   1.385       .  S
C1907      F1915   1.385       .  S
C1907      F1916   1.378       .  S
C1907      F1917   1.370       .  S
C1921      C1922   1.400       .  A
C1921      C1926   1.406       .  A
C1921      H1931   1.085       .  S
C1922      C1927   1.482       .  S
C1922      C1923   1.414       .  A
C1923      C1928   1.518       .  S
C1923      C1924   1.401       .  A
C1924      C1925   1.405       .  A
C1924      H1929   1.083       .  S
C1925      C1926   1.424       .  A
C1926      C1930   1.516       .  S
C1927      C1932   1.402       .  A
C1927      C1936   1.393       .  A
C1928      F1944   1.382   1_565  S
C1928      F1945   1.381       .  S
C1928      F1946   1.385       .  S
C1930      F1941   1.384       .  S
C1930      F1942   1.384       .  S
C1930      F1943   1.376       .  S
C1932      C1937   1.523       .  S
C1932      C1933   1.403       .  A
C1933      C1934   1.425       .  A
C1933      H1938   1.065       .  S
C1934      C1935   1.453       .  A
C1935      C1936   1.412       .  A
C1936      H1940   1.084       .  S
C1937      F1950   1.384       .  S
C1937      F1951   1.383       .  S
C1937      F1952   1.382       .  S
C1939      F1947   1.386       .  S
C1939      F1948   1.373       .  S
C1939      F1949   1.381       .  S
C1953      C1954   1.386       .  A
C1953      C1958   1.400       .  A
C1953      H1963   1.087       .  S
C1954      C1959   1.480       .  S
C1954      C1955   1.404       .  A
C1955      C1960   1.520       .  S
C1955      C1956   1.409       .  A
C1956      C1957   1.429       .  A
C1956      H1961   1.072       .  S
C1957      C1958   1.453       .  A
C1958      C1962   1.529       .  S
C1959      C1964   1.414       .  A
C1959      C1968   1.396       .  A
C1960      F1976   1.382       .  S
C1960      F1977   1.381       .  S
C1960      F1978   1.385       .  S
C1962      F1973   1.380       .  S
C1962      F1974   1.386       .  S
C1962      F1975   1.366       .  S
C1964      C1969   1.519       .  S
C1964      C1965   1.407       .  A
C1965      C1966   1.408       .  A
C1965      H1970   1.082       .  S
C1966      C1967   1.430       .  A
C1967      C1971   1.522       .  S
C1967      C1968   1.404       .  A
C1968      H1972   1.083       .  S
C1969      F1982   1.384       .  S
C1969      F1983   1.382       .  S
C1969      F1984   1.382       .  S
C1971      F1979   1.383       .  S
C1971      F1980   1.376       .  S
C1971      F1981   1.385       .  S
