geometry optimzed in LAMMPS
_audit_creation_date              2020-12-01 
_audit_creation_method            'lammps2cif' 
_symmetry_space_group_name_H-M    'P1' 
_symmetry_Int_Tables_number       1 
_symmetry_cell_setting            triclinic 
loop_ 
_symmetry_equiv_pos_as_xyz 
  x,y,z 
_cell_length_a                    28.70470672 
_cell_length_b                    28.66775491469772 
_cell_length_c                    28.652142983692187 
_cell_angle_alpha                 89.4723101910099 
_cell_angle_beta                  90.30773963108992 
_cell_angle_gamma                 90.44104076990216 
loop_ 
_atom_site_label 
_atom_site_type_symbol 
_atom_site_fract_x 
_atom_site_fract_y 
_atom_site_fract_z 
_atom_site_charge 
Fe1        Fe  0.77786014  0.68241344  0.66992549     1.65800
Fe2        Fe  0.69403917  0.76595712  0.67910948     1.73200
Fe3        Fe  0.69937168  0.67726612  0.75961549     1.54400
O4          O  0.70451730  0.61171759  0.73101653    -0.80000
O5          O  0.69694696  0.79776033  0.74326916    -0.78300
O6          O  0.74978781  0.61673565  0.66813231    -0.82500
O7          O  0.81417390  0.66594584  0.73079027    -0.77400
O8          O  0.63116999  0.67901800  0.73688677    -0.79200
O9          O  0.75647661  0.79816136  0.66195926    -0.81900
C10         C  0.80463780  0.66298035  0.77394701     0.98900
C11         C  0.72405739  0.59381943  0.69582488     1.06300
O12         O  0.72389732  0.70861739  0.70310152    -1.10900
O13         O  0.68708734  0.73993659  0.61253739    -0.73300
O14         O  0.74853420  0.69370666  0.60440613    -0.76800
O15         O  0.76438596  0.67048351  0.79012434    -0.77500
C16         C  0.71282008  0.71424148  0.58797227     0.97800
O17         O  0.81279415  0.74522287  0.66743115    -0.75500
O18         O  0.62712291  0.74303012  0.69264003    -0.80700
C19         C  0.69114957  0.78244917  0.78451815     1.00400
C20         C  0.60806698  0.70921645  0.71429133     1.06300
O21         O  0.69046251  0.73932443  0.79517443    -0.76300
C22         C  0.79892775  0.78648766  0.66045095     1.04600
Fe23       Fe  0.67858399  0.29501936  0.68399498     1.65800
Fe24       Fe  0.76119784  0.38163161  0.69345920     1.73200
Fe25       Fe  0.66994992  0.37615276  0.77057786     1.54400
O26         O  0.60505927  0.37014064  0.73907946    -0.80000
O27         O  0.78908680  0.38871632  0.75926389    -0.78300
O28         O  0.61095567  0.31920054  0.68126621    -0.82500
O29         O  0.66528166  0.25925666  0.74542269    -0.77400
O30         O  0.67298838  0.44340881  0.74604850    -0.79200
O31         O  0.79675625  0.31960590  0.68726595    -0.81900
C32         C  0.66000397  0.27033451  0.78775934     0.98900
C33         C  0.58741229  0.34709855  0.70559821     1.06300
O34         O  0.70333322  0.35089493  0.71605419    -1.10900
O35         O  0.74241620  0.37925356  0.62413653    -0.73300
O36         O  0.68897621  0.32286173  0.61843728    -0.76800
O37         O  0.66250711  0.31185472  0.80225445    -0.77500
C38         C  0.71542818  0.35364023  0.60032878     0.97800
O39         O  0.74274886  0.26334912  0.68184277    -0.75500
O40         O  0.73266869  0.44726286  0.69653995    -0.80700
C41         C  0.77306529  0.39149247  0.80016044     1.00400
C42         C  0.69949195  0.46585995  0.71865742     1.06300
O43         O  0.73018096  0.38656465  0.80967907    -0.76300
C44         C  0.78473335  0.27731142  0.68203564     1.04600
Fe45       Fe  0.28093270  0.39879505  0.69962961     1.65800
Fe46       Fe  0.36950662  0.31914627  0.69603876     1.73200
Fe47       Fe  0.37182334  0.40654822  0.77723071     1.54400
O48         O  0.36688307  0.47134636  0.74467156    -0.80000
O49         O  0.37958731  0.28748896  0.76057977    -0.78300
O50         O  0.30543251  0.46596028  0.69683407    -0.82500
O51         O  0.25185730  0.40909770  0.76437547    -0.77400
O52         O  0.43776837  0.40157181  0.75015142    -0.79200
O53         O  0.30673569  0.28355915  0.69010100    -0.81900
C54         C  0.26786526  0.41714342  0.80473677     0.98900
C55         C  0.33884166  0.48870106  0.71475825     1.06300
O56         O  0.34074587  0.37467313  0.72442984    -1.10900
O57         O  0.36239635  0.34506386  0.62858643    -0.73300
O58         O  0.30106875  0.39228485  0.63121015    -0.77600
O59         O  0.31100741  0.41714410  0.81415851    -0.77500
C60         C  0.33252243  0.37136256  0.60892917     0.97800
O61         O  0.24911524  0.33447096  0.69858005    -0.75500
O62         O  0.43711244  0.34529663  0.69738084    -0.80700
C63         C  0.38382729  0.30170472  0.80231167     1.00400
C64         C  0.45832903  0.37598526  0.72120418     1.06300
O65         O  0.38062668  0.34432697  0.81385286    -0.76300
C66         C  0.26387385  0.29362602  0.69206900     1.04600
Fe67       Fe  0.38778312  0.79317606  0.68212742     1.65800
Fe68       Fe  0.31213440  0.70032845  0.67885829     1.73200
Fe69       Fe  0.39537771  0.70652810  0.76494881     1.54400
O70         O  0.46165191  0.71765790  0.73874963    -0.80000
O71         O  0.27692684  0.69266111  0.74143374    -0.78300
O72         O  0.45599387  0.77138689  0.68219670    -0.82500
O73         O  0.39638204  0.82489999  0.74600515    -0.77400
O74         O  0.39899083  0.64045504  0.73895014    -0.79200
O75         O  0.27486007  0.76076868  0.66573770    -0.81900
C76         C  0.39880813  0.81119398  0.78804648     0.98900
C77         C  0.47937239  0.74255234  0.70637911     1.06300
O78         O  0.36497983  0.73334706  0.70877212    -1.10900
O79         O  0.34193945  0.70409087  0.61304664    -0.73300
O80         O  0.38280055  0.77053696  0.61430687    -0.76800
O81         O  0.39666757  0.76873249  0.80017714    -0.77500
C82         C  0.36600198  0.73574620  0.59290952     0.97800
O83         O  0.32208459  0.82155265  0.67839621    -0.75500
O84         O  0.34045545  0.63480872  0.68810380    -0.80700
C85         C  0.29002163  0.68707141  0.78355244     1.00400
C86         C  0.37284780  0.61685643  0.71250668     1.06300
O87         O  0.33221185  0.69094006  0.79685692    -0.76300
C88         C  0.28255606  0.80428320  0.66843358     1.04600
Fe89       Fe  0.30316622  0.68196014  0.37162294     1.65800
Fe90       Fe  0.38531379  0.76916166  0.37700401     1.73200
Fe91       Fe  0.39082216  0.68702644  0.29100975     1.54400
O92         O  0.39041564  0.61977933  0.31722422    -0.80000
O93         O  0.40071014  0.80315625  0.31458365    -0.78300
O94         O  0.32952003  0.61573837  0.36508072    -0.82500
O95         O  0.27141737  0.67724096  0.30738583    -0.77400
O96         O  0.45687990  0.69596100  0.31948400    -0.79200
O97         O  0.32184737  0.80187939  0.37673950    -0.81900
C98         C  0.28605830  0.67138374  0.26630315     0.98900
C99         C  0.36291415  0.59699687  0.34352104     1.06300
O100        O  0.35971697  0.71274789  0.34643714    -1.10900
O101        O  0.37405067  0.74374413  0.44407184    -0.73300
O102        O  0.32718716  0.68177163  0.43928534    -0.76800
O103        O  0.32882004  0.67401018  0.25530038    -0.77500
C104        C  0.35202467  0.70979130  0.46266584     0.97800
O105        O  0.26915508  0.74427319  0.38147588    -0.75500
O106        O  0.45169133  0.74295577  0.38082766    -0.80700
C107        C  0.40239108  0.79217083  0.27182899     1.00400
C108        C  0.47492779  0.71715245  0.35406951     1.06300
O109        O  0.39538727  0.75101463  0.25746352    -0.76300
C110        C  0.28043827  0.78710830  0.38142848     1.04600
Fe111      Fe  0.77298981  0.65451139  0.36758088     1.65800
Fe112      Fe  0.69305639  0.66779497  0.27965432     1.73200
Fe113      Fe  0.69296246  0.74243467  0.37277107     1.54400
O114        O  0.69443726  0.71221541  0.43854246    -0.80000
O115        O  0.69093614  0.73401878  0.25184208    -0.78300
O116        O  0.75169975  0.66077032  0.43578483    -0.82500
O117        O  0.81182156  0.71580309  0.37409171    -0.77400
O118        O  0.62482581  0.71900275  0.36498785    -0.79200
O119        O  0.75636742  0.65904093  0.24723643    -0.81900
C120        C  0.80024319  0.75764923  0.38297488     0.98900
C121        C  0.72224078  0.68404915  0.45826648     1.06300
O122        O  0.71973597  0.68841071  0.33998924    -1.10900
O123        O  0.69145133  0.59915714  0.30055519    -0.73300
O124        O  0.73705346  0.59132055  0.36370588    -0.76800
O125        O  0.75827060  0.77148272  0.38409230    -0.77500
C126        C  0.70805489  0.57512540  0.33394974     0.97800
O127        O  0.80564297  0.64167753  0.30469266    -0.75500
O128        O  0.62565655  0.67302006  0.30263497    -0.80700
C129        C  0.68710572  0.77423900  0.26912412     1.00400
C130        C  0.60433640  0.69349391  0.33502429     1.06300
O131        O  0.68752001  0.78204568  0.31254324    -0.76300
C132        C  0.79572662  0.64555714  0.26175744     1.04600
Fe133      Fe  0.28525249  0.37861566  0.39523381     1.65800
Fe134      Fe  0.36453635  0.38346031  0.30656483     1.73200
Fe135      Fe  0.37052671  0.29594945  0.38838443     1.54400
O136        O  0.37474673  0.32178651  0.45503344    -0.80000
O137        O  0.37755396  0.32136504  0.27276425    -0.78300
O138        O  0.31358851  0.36866708  0.46133125    -0.82500
O139        O  0.25141260  0.31501208  0.39859732    -0.77400
O140        O  0.43712933  0.32165707  0.37676106    -0.79200
O141        O  0.29989209  0.38588018  0.27468546    -0.81900
C142        C  0.26541151  0.27359439  0.40471479     0.98900
C143        C  0.34842413  0.34750055  0.47882429     1.06300
O144        O  0.33997252  0.35254242  0.36329264    -1.10900
O145        O  0.35625967  0.44986234  0.33231200    -0.73300
O146        O  0.31237082  0.44527332  0.39605021    -0.76800
O147        O  0.30803126  0.26219869  0.40339911    -0.77500
C148        C  0.33702177  0.46828524  0.36731139     0.97800
O149        O  0.24955421  0.39280880  0.33334222    -0.75500
O150        O  0.43175971  0.38522173  0.33174490    -0.80700
C151        C  0.37824754  0.27840882  0.28373413     1.00400
C152        C  0.45535817  0.35638077  0.35560054     1.06300
O153        O  0.37091517  0.26321935  0.32471178    -0.76300
C154        C  0.25931329  0.39326473  0.29012877     1.04600
Fe155      Fe  0.66720772  0.36119015  0.30635350     1.65800
Fe156      Fe  0.75770883  0.35611741  0.38438071     1.73200
Fe157      Fe  0.67464446  0.27048583  0.38341552     1.54400
O158        O  0.60624590  0.29138540  0.37726343    -0.80000
O159        O  0.79363920  0.29420527  0.38332620    -0.78300
O160        O  0.60474496  0.36090852  0.34202280    -0.82500
O161        O  0.64901100  0.29903164  0.27336202    -0.77400
O162        O  0.67448537  0.29669492  0.44956250    -0.79200
O163        O  0.78447646  0.37208162  0.31874743    -0.81900
C164        C  0.65510897  0.25571810  0.28093171     0.98900
C165        C  0.58489244  0.32776250  0.36413500     1.06300
O166        O  0.70019670  0.32919551  0.35778822    -1.10900
O167        O  0.73067190  0.42147714  0.39017513    -0.73300
O168        O  0.68064818  0.42795873  0.33101996    -0.76800
O169        O  0.67156656  0.23962394  0.31889014    -0.77500
C170        C  0.70488942  0.44556253  0.36378102     0.97800
O171        O  0.72673913  0.36509928  0.26621299    -0.75500
O172        O  0.73622392  0.34454500  0.45262973    -0.80700
C173        C  0.78121711  0.25275065  0.39262672     1.00400
C174        C  0.70196767  0.32340942  0.47162783     1.06300
O175        O  0.73894249  0.24001233  0.39496955    -0.76300
C176        C  0.76906203  0.37297037  0.27700313     1.04600
N177        N  0.95640559  0.01114633  0.46270704    -0.35000
N178        N  0.02531538  0.08721576  0.46333411    -0.55500
N179        N  0.10062271  0.02153125  0.45464220    -0.35000
N180        N  0.03220082  0.94574343  0.45160322    -0.55500
C181        C  0.92862742  0.04830347  0.45417594     0.28600
C182        C  0.93230239  0.97242767  0.44982058     0.28600
C183        C  0.12351993  0.06196416  0.44532202     0.28600
C184        C  0.12709102  0.98657218  0.43819338     0.28600
C185        C  0.98622933  0.11194416  0.47066224     0.37200
C186        C  0.06156339  0.11712950  0.46865278     0.37200
C187        C  0.99664694  0.91489402  0.45599424     0.37200
C188        C  0.07171131  0.92048331  0.45164596     0.37200
C189        C  0.88564909  0.03272840  0.43794613    -0.20200
C190        C  0.88793877  0.98495932  0.43531642    -0.20200
C191        C  0.16565419  0.05241674  0.42401002    -0.20200
C192        C  0.16789060  0.00487120  0.41949033    -0.20200
C193        C  0.99774025  0.15762675  0.48170126    -0.21300
C194        C  0.04549926  0.16086712  0.48059429    -0.21300
C195        C  0.01370596  0.86987758  0.45956254    -0.21300
C196        C  0.06128691  0.87342232  0.45686834    -0.21300
C197        C  0.94076732  0.09588920  0.46028364    -0.16700
C198        C  0.94925009  0.92615745  0.45010454    -0.16700
C199        C  0.11614769  0.93855041  0.44067269    -0.16600
C200        C  0.10788536  0.10718527  0.45609267    -0.16600
H201        H  0.85583652  0.05363700  0.42824319     0.16300
H202        H  0.86033709  0.96217059  0.42305146     0.16300
H203        H  0.19197283  0.07712029  0.41248775     0.16300
H204        H  0.19628764  0.98598818  0.40392021     0.16300
H205        H  0.97409575  0.18609159  0.48799197     0.14500
H206        H  0.06591118  0.19232247  0.48573793     0.14500
H207        H  0.99384697  0.83771578  0.46207920     0.14500
H208        H  0.08532887  0.84452019  0.45685007     0.14500
H209        H  0.98896078  0.01197628  0.47878000     0.27800
H210        H  0.07066594  0.01767728  0.47460542     0.27800
N211        N  0.10367956  0.04490156  0.61252133    -0.35000
N212        N  0.02836165  0.11210658  0.61651128    -0.55500
N213        N  0.95948439  0.03869101  0.60326654    -0.35000
N214        N  0.03489853  0.97124787  0.60114381    -0.55500
C215        C  0.12652475  0.08243121  0.62991355     0.28600
C216        C  0.12997051  0.00698708  0.62227777     0.28600
C217        C  0.93192297  0.07382058  0.61766175     0.28600
C218        C  0.93539651  0.99843784  0.60983747     0.28600
C219        C  0.06502626  0.14187134  0.61646137     0.37200
C220        C  0.98984456  0.13851721  0.61195218     0.37200
C221        C  0.07393054  0.94579915  0.59617950     0.37200
C222        C  0.99868081  0.94256227  0.59146019     0.37200
C223        C  0.16856122  0.06842898  0.64939745    -0.20200
C224        C  0.17071975  0.02086070  0.64461310    -0.20200
C225        C  0.88918235  0.05586687  0.63167883    -0.20200
C226        C  0.89136670  0.00833050  0.62677846    -0.20200
C227        C  0.04980655  0.18739217  0.61099795    -0.21300
C228        C  0.00210248  0.18526361  0.60817295    -0.21300
C229        C  0.06253309  0.90097207  0.58214963    -0.21300
C230        C  0.01479961  0.89889208  0.57926272    -0.21300
C231        C  0.11098754  0.12905235  0.62793458    -0.16700
C232        C  0.11856146  0.96031043  0.61113987    -0.16700
C233        C  0.95177189  0.95305998  0.60074785    -0.16600
C234        C  0.94407489  0.12164477  0.61809979    -0.16600
H235        H  0.19482597  0.09014008  0.66581670     0.16300
H236        H  0.19897728  0.99897344  0.65664156     0.16300
H237        H  0.85961282  0.07493966  0.64463707     0.16300
H238        H  0.86373303  0.98384025  0.63525167     0.16300
H239        H  0.07075324  0.21894602  0.61099947     0.14500
H240        H  0.97898716  0.21483623  0.60553399     0.14500
H241        H  0.08602488  0.87220426  0.57667294     0.14500
H242        H  0.99422320  0.86820489  0.57111153     0.14500
H243        H  0.07369566  0.04565330  0.59200046     0.27800
H244        H  0.99154299  0.04222834  0.58687360     0.27800
N245        N  0.46050239  0.05303874  0.96520104    -0.35000
N246        N  0.46615708  0.97777775  0.03462225    -0.55500
N247        N  0.46856019  0.04461941  0.11006778    -0.35000
N248        N  0.46064215  0.11971848  0.04057311    -0.55500
C249        C  0.44811542  0.01592714  0.93884782     0.28600
C250        C  0.44637448  0.09184344  0.94189972     0.28600
C251        C  0.45974602  0.00468271  0.13426212     0.28600
C252        C  0.45547439  0.08046486  0.13742582     0.28600
C253        C  0.46869192  0.95235506  0.99526875     0.37200
C254        C  0.47377717  0.94798633  0.07066614     0.37200
C255        C  0.46200325  0.15000540  0.00414588     0.37200
C256        C  0.46488030  0.14547465  0.07962030     0.37200
C257        C  0.42762710  0.03146091  0.89762817    -0.20200
C258        C  0.42659434  0.07928058  0.89952871    -0.20200
C259        C  0.44298407  0.01545337  0.17814390    -0.20200
C260        C  0.44021881  0.06315661  0.18010884    -0.20200
C261        C  0.47900804  0.90635684  0.00630329    -0.21300
C262        C  0.48226010  0.90360525  0.05408151    -0.21300
C263        C  0.46824513  0.19513297  0.02009501    -0.21300
C264        C  0.46998188  0.19227271  0.06792014    -0.21300
C265        C  0.45514340  0.96845199  0.95056217    -0.16700
C266        C  0.45070590  0.13827974  0.95770014    -0.16700
C267        C  0.45678056  0.12837194  0.12519268    -0.16600
C268        C  0.46588593  0.95873986  0.11790877    -0.16600
H269        H  0.41421244  0.01052580  0.86925486     0.16300
H270        H  0.41213558  0.10211718  0.87297188     0.16300
H271        H  0.43284353  0.99143599  0.20569242     0.16300
H272        H  0.42764891  0.08278294  0.20950349     0.16300
H273        H  0.48180795  0.87739262  0.98253497     0.14500
H274        H  0.48798473  0.87212419  0.07438736     0.14500
H275        H  0.46915248  0.22699000  0.99953993     0.14500
H276        H  0.47252604  0.22149859  0.09147268     0.14500
H277        H  0.48027850  0.05205266  0.99558328     0.27800
H278        H  0.48513250  0.04740104  0.07803603     0.27800
N279        N  0.01867311  0.47054269  0.97052102    -0.35000
N280        N  0.94533476  0.45998817  0.03989396    -0.55500
N281        N  0.01357588  0.45778085  0.11501495    -0.35000
N282        N  0.08723011  0.46635895  0.04596047    -0.55500
C283        C  0.98208524  0.45873019  0.94283444     0.28600
C284        C  0.05801161  0.46284102  0.94592918     0.28600
C285        C  0.97521820  0.44183785  0.13763983     0.28600
C286        C  0.05107801  0.44544873  0.14108913     0.28600
C287        C  0.91881911  0.46656817  0.00138122     0.37200
C288        C  0.91608532  0.46050714  0.07665283     0.37200
C289        C  0.11607763  0.47548356  0.00980088     0.37200
C290        C  0.11340291  0.46904561  0.08525610     0.37200
C291        C  0.99831944  0.44530085  0.89951923    -0.20200
C292        C  0.04614744  0.44796109  0.90143266    -0.20200
C293        C  0.98845730  0.42044445  0.17919517    -0.20200
C294        C  0.03624572  0.42275378  0.18139179    -0.20200
C295        C  0.87260405  0.47236116  0.01380565    -0.21300
C296        C  0.87088588  0.46857927  0.06154053    -0.21300
C297        C  0.16066004  0.48483388  0.02627472    -0.21300
C298        C  0.15895334  0.48079900  0.07406218    -0.21300
C299        C  0.93447652  0.45994958  0.95540315    -0.16700
C300        C  0.10429189  0.46888710  0.96235647    -0.16700
C301        C  0.09825590  0.45472820  0.13003647    -0.16600
C302        C  0.92856495  0.44673941  0.12234217    -0.16600
H303        H  0.97787716  0.43420407  0.86971684     0.16300
H304        H  0.06951333  0.43921319  0.87337128     0.16300
H305        H  0.96605921  0.40445173  0.20515989     0.16300
H306        H  0.05762838  0.40883151  0.20936796     0.16300
H307        H  0.84295843  0.47679841  0.99072781     0.14500
H308        H  0.83966606  0.46945863  0.08251918     0.14500
H309        H  0.19155890  0.49203246  0.00587054     0.14500
H310        H  0.18827943  0.48424031  0.09771365     0.14500
H311        H  0.01683721  0.48586057  0.00319673     0.27800
H312        H  0.01395907  0.47912841  0.08546437     0.27800
N313        N  0.61539658  0.02252370  0.95883779    -0.35000
N314        N  0.59676311  0.09220786  0.03027809    -0.55500
N315        N  0.60960015  0.01969972  0.10017929    -0.35000
N316        N  0.62376110  0.94967144  0.02882101    -0.55500
C317        C  0.60346821  0.05952510  0.93198852     0.28600
C318        C  0.61552915  0.98452325  0.93118100     0.28600
C319        C  0.59403755  0.05473721  0.12701736     0.28600
C320        C  0.60818738  0.98023487  0.12620954     0.28600
C321        C  0.60432763  0.12079753  0.99326884     0.37200
C322        C  0.60030100  0.11909443  0.06871419     0.37200
C323        C  0.63898308  0.92607696  0.99135490     0.37200
C324        C  0.63756346  0.92512536  0.06679727     0.37200
C325        C  0.59549781  0.04490550  0.88658782    -0.20200
C326        C  0.60293575  0.99748746  0.88611626    -0.20200
C327        C  0.58176339  0.03721824  0.17055951    -0.20200
C328        C  0.59063565  0.99006679  0.17003173    -0.20200
C329        C  0.61064431  0.16632208  0.00815718    -0.21300
C330        C  0.60807315  0.16523535  0.05596414    -0.21300
C331        C  0.66142448  0.88566049  0.00554035    -0.21300
C332        C  0.66065195  0.88512415  0.05340210    -0.21300
C333        C  0.60536857  0.10652512  0.94622095    -0.16700
C334        C  0.63175207  0.93989056  0.94454406    -0.16700
C335        C  0.62784137  0.93733629  0.11326384    -0.16600
C336        C  0.59684203  0.10252453  0.11513915    -0.16600
H337        H  0.58667297  0.06642791  0.85663599     0.16300
H338        H  0.60101739  0.97541462  0.85571129     0.16300
H339        H  0.56927206  0.05669365  0.20009437     0.16300
H340        H  0.58635759  0.96609728  0.19912876     0.16300
H341        H  0.61710264  0.19704741  0.98686506     0.14500
H342        H  0.61219319  0.19491531  0.07873001     0.14500
H343        H  0.67707130  0.85949417  0.98373806     0.14500
H344        H  0.67540035  0.85833788  0.07573430     0.14500
H345        H  0.62967450  0.02458110  0.99209527     0.27800
H346        H  0.62762005  0.02383823  0.06905938     0.27800
N347        N  0.04680848  0.60081693  0.95028222    -0.35000
N348        N  0.11651948  0.60325449  0.02422664    -0.55500
N349        N  0.04142298  0.59547133  0.09266655    -0.35000
N350        N  0.97212603  0.58715708  0.01836929    -0.55500
C351        C  0.08617650  0.60039291  0.92446240     0.28600
C352        C  0.01055304  0.59181069  0.92129294     0.28600
C353        C  0.07895692  0.59218104  0.12126764     0.28600
C354        C  0.00318726  0.58480722  0.11817419     0.28600
C355        C  0.14398870  0.61588953  0.98793015     0.37200
C356        C  0.14121113  0.61232391  0.06346379     0.37200
C357        C  0.94579398  0.59293427  0.97944848     0.37200
C358        C  0.94291485  0.59046619  0.05512043     0.37200
C359        C  0.07483571  0.59039495  0.87850797    -0.20200
C360        C  0.02714777  0.58503777  0.87649754    -0.20200
C361        C  0.06441694  0.57877750  0.16553485    -0.20200
C362        C  0.01661980  0.57421051  0.16360306    -0.20200
C363        C  0.18688970  0.63143032  0.00416483    -0.21300
C364        C  0.18516117  0.62916017  0.05192343    -0.21300
C365        C  0.89935710  0.59768854  0.99152369    -0.21300
C366        C  0.89754332  0.59614951  0.03937336    -0.21300
C367        C  0.13122481  0.61331025  0.94029038    -0.16700
C368        C  0.96282160  0.59440679  0.93314247    -0.16700
C369        C  0.95643253  0.58868910  0.10270487    -0.16600
C370        C  0.12515276  0.60533831  0.10961388    -0.16600
H371        H  0.09835436  0.58843959  0.84920172     0.16300
H372        H  0.00685846  0.57814362  0.84533601     0.16300
H373        H  0.08590484  0.57391657  0.19632533     0.16300
H374        H  0.99419915  0.56503441  0.19257689     0.16300
H375        H  0.21627322  0.64359921  0.98378012     0.14500
H376        H  0.21301331  0.63930196  0.07541956     0.14500
H377        H  0.86985167  0.60233980  0.96831810     0.14500
H378        H  0.86638729  0.59933972  0.06017069     0.14500
H379        H  0.04409273  0.61344569  0.98383887     0.27800
H380        H  0.04124498  0.61069893  0.05979603     0.27800
C381        C  0.64110495  0.22327314  0.24541198    -0.16900
C382        C  0.62744062  0.19582173  0.21659293     0.07200
C383        C  0.61201020  0.16349519  0.18273010     0.09100
C384        C  0.60204578  0.13578659  0.15272832    -0.17700
C385        C  0.80103287  0.38543479  0.24038887    -0.16900
C386        C  0.82855160  0.39926643  0.21158853     0.07200
C387        C  0.86193620  0.41717365  0.17985461     0.09100
C388        C  0.89160618  0.43189495  0.15373940    -0.17700
C389        C  0.90592983  0.13073798  0.44880541    -0.16900
C390        C  0.87792246  0.15899989  0.43503708     0.07200
C391        C  0.84523847  0.19140026  0.41723701     0.09100
C392        C  0.81659276  0.21907861  0.40363235    -0.17700
C393        C  0.53454123  0.32930853  0.37374387    -0.14800
C394        C  0.50649332  0.36229700  0.35594429    -0.30000
H395        H  0.51948788  0.29959429  0.39224862     0.14200
H396        H  0.52130409  0.39158112  0.33660801     0.14800
C397        C  0.13335691  0.44410444  0.16535606    -0.16900
C398        C  0.16157025  0.43233032  0.19459716     0.07200
C399        C  0.19434362  0.41698441  0.22850565     0.09100
C400        C  0.22308976  0.40462186  0.25696570    -0.17700
C401        C  0.39098035  0.24559236  0.24858886    -0.16900
C402        C  0.40655225  0.21895169  0.22043510     0.07200
C403        C  0.42678546  0.18829115  0.18814605     0.09100
C404        C  0.44261370  0.16164584  0.16013040    -0.17700
C405        C  0.23124522  0.23810874  0.41503240    -0.16900
C406        C  0.20219468  0.20937080  0.42580675     0.07200
C407        C  0.16828984  0.17578359  0.43894724     0.09100
C408        C  0.14010462  0.14579428  0.44858334    -0.17700
C409        C  0.69381559  0.52567996  0.33568092    -0.14800
C410        C  0.70701351  0.49649863  0.36988611    -0.30000
H411        H  0.67525119  0.51207961  0.30549233     0.14200
H412        H  0.72615741  0.50993563  0.39977615     0.14800
C413        C  0.83025789  0.63248843  0.22799786    -0.16900
C414        C  0.85850427  0.61951479  0.19982468     0.07200
C415        C  0.89168582  0.60474414  0.16664960     0.09100
C416        C  0.92064333  0.59487702  0.13790515    -0.17700
C417        C  0.67960861  0.81261533  0.23788257    -0.16900
C418        C  0.66897396  0.84320321  0.21099301     0.07200
C419        C  0.65373183  0.87706073  0.17867168     0.09100
C420        C  0.64073489  0.90479867  0.14978098    -0.17700
C421        C  0.83598915  0.79127183  0.39431801    -0.16900
C422        C  0.86283906  0.82118908  0.40734843     0.07200
C423        C  0.89228587  0.85726980  0.42417977     0.09100
C424        C  0.91739015  0.88850430  0.43759008    -0.17700
C425        C  0.36834733  0.54597992  0.34636944    -0.14800
C426        C  0.34092954  0.51911314  0.37360661    -0.30000
H427        H  0.39227947  0.52989834  0.32216543     0.14200
H428        H  0.31769051  0.53514102  0.39851533     0.14800
C429        C  0.52561248  0.71403517  0.36252483    -0.14800
C430        C  0.55318531  0.68853797  0.33520210    -0.30000
H431        H  0.54094442  0.73638169  0.38901438     0.14200
H432        H  0.53763741  0.66652363  0.30854284     0.14800
C433        C  0.25229293  0.65873092  0.23131501    -0.16900
C434        C  0.22244488  0.64472430  0.20498069     0.07200
C435        C  0.18710454  0.62764708  0.17492546     0.09100
C436        C  0.15784998  0.61520815  0.14717002    -0.17700
C437        C  0.45673805  0.92041596  0.15032377    -0.16900
C438        C  0.44472153  0.89040871  0.17773939     0.07200
C439        C  0.42823638  0.85662407  0.21020920     0.09100
C440        C  0.41481394  0.82772656  0.23815760    -0.17700
C441        C  0.15165798  0.90598623  0.42707162    -0.16900
C442        C  0.18089357  0.87928343  0.41417036     0.07200
C443        C  0.21507575  0.84792143  0.39939568     0.09100
C444        C  0.24466454  0.82049883  0.38907444    -0.17700
C445        C  0.37382375  0.73445234  0.54206304    -0.14800
C446        C  0.35275712  0.70353977  0.51393616    -0.30000
H447        H  0.39420593  0.76280840  0.52685995     0.14200
H448        H  0.33175617  0.67553271  0.52891001     0.14800
C449        C  0.16571403  0.62720376  0.90562704    -0.16900
C450        C  0.19406465  0.64156375  0.87777275     0.07200
C451        C  0.22712244  0.65953206  0.84552516     0.09100
C452        C  0.25552261  0.67376843  0.81767253    -0.17700
C453        C  0.24503137  0.83568173  0.65806808    -0.16900
C454        C  0.21503113  0.86285015  0.64672805     0.07200
C455        C  0.18127552  0.89567605  0.63228623     0.09100
C456        C  0.15294783  0.92462555  0.62101404    -0.17700
C457        C  0.40631341  0.84530610  0.82362922    -0.16900
C458        C  0.41636215  0.87332948  0.85317642     0.07200
C459        C  0.43070139  0.90581564  0.88713525     0.09100
C460        C  0.44299963  0.93387810  0.91584167    -0.17700
C461        C  0.33163047  0.37657614  0.55765975    -0.14800
C462        C  0.35786168  0.35059377  0.52945174    -0.30000
H463        H  0.30503486  0.39905630  0.54266091     0.14200
H464        H  0.38437540  0.32792608  0.54428123     0.14800
C465        C  0.37792107  0.56582839  0.71431982    -0.14800
C466        C  0.34275797  0.53802360  0.70083223    -0.30000
H467        H  0.40712928  0.55134292  0.73375516     0.14200
H468        H  0.31331314  0.55278135  0.68195776     0.14800
C469        C  0.14290077  0.16535805  0.64295085    -0.16900
C470        C  0.16975096  0.19455135  0.65705717     0.07200
C471        C  0.20200375  0.22816660  0.67306441     0.09100
C472        C  0.23022424  0.25737185  0.68415011    -0.17700
C473        C  0.39473238  0.26781203  0.83804465    -0.16900
C474        C  0.40722280  0.23921067  0.86662620     0.07200
C475        C  0.42375845  0.20538688  0.89889168     0.09100
C476        C  0.43736853  0.17566183  0.92575547    -0.17700
C477        C  0.14209209  0.46210385  0.92951938    -0.16900
C478        C  0.17260121  0.45270237  0.90231284     0.07200
C479        C  0.20707919  0.43941460  0.86991722     0.09100
C480        C  0.23542637  0.42820922  0.84112828    -0.17700
C481        C  0.71752577  0.35773013  0.54909555    -0.14800
C482        C  0.69380448  0.32790618  0.52191327    -0.30000
H483        H  0.74230442  0.38220942  0.53375371     0.14200
H484        H  0.66876386  0.30381981  0.53743739     0.14800
C485        C  0.53671555  0.35034785  0.69612044    -0.14800
C486        C  0.50960136  0.38082348  0.71857033    -0.30000
H487        H  0.52086821  0.32415480  0.67378280     0.14200
H488        H  0.52579981  0.40696137  0.74074409     0.14800
C489        C  0.61293025  0.14179548  0.91056678    -0.16900
C490        C  0.62329259  0.17084096  0.88174083     0.07200
C491        C  0.63752918  0.20475611  0.84878110     0.09100
C492        C  0.64912008  0.23420516  0.82086445    -0.17700
C493        C  0.90878918  0.15490688  0.63110837    -0.16900
C494        C  0.88078114  0.18268989  0.64473914     0.07200
C495        C  0.84853254  0.21543090  0.66128987     0.09100
C496        C  0.82022466  0.24365956  0.67327534    -0.17700
C497        C  0.80534991  0.40308738  0.83683797    -0.16900
C498        C  0.83448483  0.41657508  0.86419748     0.07200
C499        C  0.86964916  0.43395500  0.89425881     0.09100
C500        C  0.89960635  0.44764022  0.92063285    -0.17700
C501        C  0.70153892  0.71010237  0.53768637    -0.14800
C502        C  0.72369729  0.68011529  0.50976608    -0.30000
H503        H  0.67681210  0.73465109  0.52276477     0.14200
H504        H  0.74836100  0.65563588  0.52494591     0.14800
C505        C  0.55675888  0.70623739  0.71599288    -0.14800
C506        C  0.52970056  0.73954610  0.69702089    -0.30000
H507        H  0.54114129  0.67842469  0.73681392     0.14200
H508        H  0.54522140  0.76696289  0.67560920     0.14800
C509        C  0.69295135  0.51644998  0.71548789    -0.14800
C510        C  0.71972971  0.54347832  0.68815176    -0.30000
H511        H  0.66920153  0.53219665  0.74010785     0.14200
H512        H  0.74292979  0.52781948  0.66295352     0.14800
C513        C  0.68241798  0.81575877  0.82047807    -0.16900
C514        C  0.67104750  0.84448362  0.84863531     0.07200
C515        C  0.65591286  0.87841918  0.88048757     0.09100
C516        C  0.64370275  0.90697549  0.90846870    -0.17700
C517        C  0.84066196  0.64827061  0.80598508    -0.16900
C518        C  0.86928609  0.63313611  0.83319094     0.07200
C519        C  0.90194073  0.61549643  0.86606132     0.09100
C520        C  0.92960424  0.60322821  0.89560887    -0.17700
C521        C  0.83279160  0.82140057  0.64828322    -0.16900
C522        C  0.86068749  0.85012174  0.63509536     0.07200
C523        C  0.89274360  0.88405285  0.61913347     0.09100
C524        C  0.91974390  0.91447669  0.60803420    -0.17700
loop_ 
_geom_bond_atom_site_label_1 
_geom_bond_atom_site_label_2 
_geom_bond_distance 
_geom_bond_site_symmetry_2 
_ccdc_geom_bond_type 
Fe1          O17   2.055       .  S
Fe1           O7   2.079       .  S
Fe1          O14   2.077       .  S
Fe1           O6   2.043       .  S
Fe1          O12   1.978       .  S
Fe2           O5   2.060       .  S
Fe2           O9   2.069       .  S
Fe2          O13   2.063       .  S
Fe2          O18   2.063       .  S
Fe2          O12   1.976       .  S
Fe3          O21   2.076       .  S
Fe3           O8   2.061       .  S
Fe3          O15   2.066       .  S
Fe3           O4   2.064       .  S
Fe3          O12   1.975       .  S
O4           C11   1.271       .  A
O5           C19   1.268       .  A
O6           C11   1.263       .  A
O7           C10   1.270       .  A
O8           C20   1.266       .  A
O9           C22   1.267       .  A
C10          O15   1.268       .  A
C10         C517   1.442       .  S
C11         C510   1.466       .  S
O13          C16   1.268       .  A
O14          C16   1.272       .  A
C16         C501   1.481       .  S
O17          C22   1.265       .  A
O18          C20   1.268       .  A
C19          O21   1.271       .  A
C19         C513   1.436       .  S
C20         C505   1.476       .  S
C22         C521   1.432       .  S
Fe23         O39   2.061       .  S
Fe23         O29   2.065       .  S
Fe23         O36   2.056       .  S
Fe23         O28   2.067       .  S
Fe23         O34   1.979       .  S
Fe24         O27   2.056       .  S
Fe24         O31   2.067       .  S
Fe24         O35   2.057       .  S
Fe24         O40   2.061       .  S
Fe24         O34   1.983       .  S
Fe25         O43   2.076       .  S
Fe25         O30   2.047       .  S
Fe25         O37   2.057       .  S
Fe25         O26   2.072       .  S
Fe25         O34   1.983       .  S
O26          C33   1.271       .  A
O27          C41   1.264       .  A
O28          C33   1.267       .  A
O29          C32   1.267       .  A
O30          C42   1.264       .  A
O31          C44   1.268       .  A
C32          O37   1.266       .  A
C32         C492   1.432       .  S
C33         C485   1.482       .  S
O35          C38   1.265       .  A
O36          C38   1.269       .  A
C38         C481   1.473       .  S
O39          C44   1.267       .  A
O40          C42   1.270       .  A
C41          O43   1.269       .  A
C41         C497   1.437       .  S
C42         C509   1.466       .  S
C44         C496   1.433       .  S
Fe45         O61   2.052       .  S
Fe45         O51   2.063       .  S
Fe45         O58   2.057       .  S
Fe45         O50   2.046       .  S
Fe45         O56   1.982       .  S
Fe46         O49   2.072       .  S
Fe46         O53   2.071       .  S
Fe46         O57   2.074       .  S
Fe46         O62   2.075       .  S
Fe46         O56   1.982       .  S
Fe47         O65   2.078       .  S
Fe47         O52   2.056       .  S
Fe47         O59   2.072       .  S
Fe47         O48   2.076       .  S
Fe47         O56   1.979       .  S
O48          C55   1.273       .  A
O49          C63   1.272       .  A
O50          C55   1.265       .  A
O51          C54   1.265       .  A
O52          C64   1.264       .  A
O53          C66   1.268       .  A
C54          O59   1.266       .  A
C54         C480   1.441       .  S
C55         C466   1.469       .  S
O57          C60   1.272       .  A
O58          C60   1.267       .  A
C60         C461   1.475       .  S
O61          C66   1.264       .  A
O62          C64   1.269       .  A
C63          O65   1.273       .  A
C63         C473   1.440       .  S
C64         C486   1.479       .  S
C66         C472   1.432       .  S
Fe67         O83   2.061       .  S
Fe67         O73   2.064       .  S
Fe67         O80   2.058       .  S
Fe67         O72   2.060       .  S
Fe67         O78   1.979       .  S
Fe68         O71   2.072       .  S
Fe68         O75   2.074       .  S
Fe68         O79   2.076       .  S
Fe68         O84   2.067       .  S
Fe68         O78   1.977       .  S
Fe69         O87   2.079       .  S
Fe69         O74   2.045       .  S
Fe69         O81   2.057       .  S
Fe69         O70   2.070       .  S
Fe69         O78   1.979       .  S
O70          C77   1.271       .  A
O71          C85   1.271       .  A
O72          C77   1.268       .  A
O73          C76   1.265       .  A
O74          C86   1.261       .  A
O75          C88   1.268       .  A
C76          O81   1.264       .  A
C76         C457   1.434       .  S
C77         C506   1.474       .  S
O79          C82   1.272       .  A
O80          C82   1.266       .  A
C82         C445   1.476       .  S
O83          C88   1.267       .  A
O84          C86   1.270       .  A
C85          O87   1.272       .  A
C85         C452   1.442       .  S
C86         C465   1.472       .  S
C88         C453   1.437       .  S
Fe89        O105   2.065       .  S
Fe89         O95   2.055       .  S
Fe89        O102   2.054       .  S
Fe89         O94   2.060       .  S
Fe89        O100   1.978       .  S
Fe90         O93   2.077       .  S
Fe90         O97   2.055       .  S
Fe90        O101   2.075       .  S
Fe90        O106   2.055       .  S
Fe90        O100   1.981       .  S
Fe91        O109   2.067       .  S
Fe91         O96   2.075       .  S
Fe91        O103   2.081       .  S
Fe91         O92   2.062       .  S
Fe91        O100   1.977       .  S
O92          C99   1.268       .  A
O93         C107   1.269       .  A
O94          C99   1.269       .  A
O95          C98   1.265       .  A
O96         C108   1.273       .  A
O97         C110   1.266       .  A
C98         O103   1.270       .  A
C98         C433   1.438       .  S
C99         C425   1.473       .  S
O101        C104   1.271       .  A
O102        C104   1.264       .  A
C104        C446   1.478       .  S
O105        C110   1.268       .  A
O106        C108   1.266       .  A
C107        O109   1.267       .  A
C107        C440   1.441       .  S
C108        C429   1.477       .  S
C110        C444   1.428       .  S
Fe111       O127   2.073       .  S
Fe111       O117   2.083       .  S
Fe111       O124   2.081       .  S
Fe111       O116   2.060       .  S
Fe111       O122   1.975       .  S
Fe112       O115   2.053       .  S
Fe112       O119   2.063       .  S
Fe112       O123   2.052       .  S
Fe112       O128   2.054       .  S
Fe112       O122   1.980       .  S
Fe113       O131   2.063       .  S
Fe113       O118   2.075       .  S
Fe113       O125   2.071       .  S
Fe113       O114   2.067       .  S
Fe113       O122   1.981       .  S
O114        C121   1.267       .  A
O115        C129   1.265       .  A
O116        C121   1.264       .  A
O117        C120   1.276       .  A
O118        C130   1.272       .  A
O119        C132   1.264       .  A
C120        O125   1.272       .  A
C120        C421   1.440       .  S
C121        C502   1.479       .  S
O123        C126   1.267       .  A
O124        C126   1.276       .  A
C126        C409   1.473       .  S
O127        C132   1.265       .  A
O128        C130   1.266       .  A
C129        O131   1.266       .  A
C129        C417   1.429       .  S
C130        C430   1.474       .  S
C132        C413   1.443       .  S
Fe133       O149   2.082       .  S
Fe133       O139   2.061       .  S
Fe133       O146   2.058       .  S
Fe133       O138   2.075       .  S
Fe133       O144   1.977       .  S
Fe134       O137   2.072       .  S
Fe134       O141   2.065       .  S
Fe134       O145   2.064       .  S
Fe134       O150   2.057       .  S
Fe134       O144   1.975       .  S
Fe135       O153   2.059       .  S
Fe135       O140   2.071       .  S
Fe135       O147   2.077       .  S
Fe135       O136   2.057       .  S
Fe135       O144   1.978       .  S
O136        C143   1.266       .  A
O137        C151   1.268       .  A
O138        C143   1.272       .  A
O139        C142   1.267       .  A
O140        C152   1.271       .  A
O141        C154   1.268       .  A
C142        O147   1.270       .  A
C142        C405   1.437       .  S
C143        C462   1.478       .  S
O145        C148   1.269       .  A
O146        C148   1.266       .  A
C148        C426   1.473       .  S
O149        C154   1.271       .  A
O150        C152   1.266       .  A
C151        O153   1.267       .  A
C151        C401   1.435       .  S
C152        C394   1.476       .  S
C154        C400   1.442       .  S
Fe155       O171   2.067       .  S
Fe155       O161   2.086       .  S
Fe155       O168   2.079       .  S
Fe155       O160   2.068       .  S
Fe155       O166   1.971       .  S
Fe156       O159   2.060       .  S
Fe156       O163   2.081       .  S
Fe156       O167   2.042       .  S
Fe156       O172   2.077       .  S
Fe156       O166   1.970       .  S
Fe157       O175   2.072       .  S
Fe157       O162   2.045       .  S
Fe157       O169   2.058       .  S
Fe157       O158   2.063       .  S
Fe157       O166   1.968       .  S
O158        C165   1.267       .  A
O159        C173   1.265       .  A
O160        C165   1.270       .  A
O161        C164   1.272       .  A
O162        C174   1.266       .  A
O163        C176   1.273       .  A
C164        O169   1.268       .  A
C164        C381   1.439       .  S
C165        C393   1.474       .  S
O167        C170   1.260       .  A
O168        C170   1.271       .  A
C170        C410   1.473       .  S
O171        C176   1.271       .  A
O172        C174   1.273       .  A
C173        O175   1.266       .  A
C173        C392   1.438       .  S
C174        C482   1.468       .  S
C176        C385   1.438       .  S
N177        C182   1.356   1_545  A
N177        C181   1.355       .  A
N177        H209   1.040       .  S
N178        C185   1.350   1_455  A
N178        C186   1.352       .  A
N179        C184   1.352   1_545  A
N179        C183   1.353       .  A
N179        H210   1.040       .  S
N180        C187   1.351   1_455  A
N180        C188   1.350       .  A
C181        C189   1.388       .  A
C181        C197   1.418       .  A
C182        C198   1.416       .  A
C182        C190   1.386       .  A
C183        C191   1.388       .  A
C183        C200   1.412       .  A
C184        C199   1.411       .  A
C184        C192   1.388   1_565  A
C185        C197   1.411       .  A
C185        C193   1.387       .  A
C186        C200   1.411       .  A
C186        C194   1.386       .  A
C187        C195   1.387   1_655  A
C187        C198   1.410       .  A
C188        C196   1.387       .  A
C188        C199   1.409       .  A
C189        C190   1.374   1_545  A
C189        H201   1.082       .  S
C190        H202   1.082       .  S
C191        C192   1.372       .  A
C191        H203   1.082       .  S
C192        H204   1.082   1_545  S
C193        C194   1.374   1_655  A
C193        H205   1.082       .  S
C194        H206   1.082       .  S
C195        C196   1.371       .  A
C195        H207   1.082   1_455  S
C196        H208   1.082       .  S
C197        C389   1.453       .  S
C198        C424   1.456       .  S
C199        C441   1.445       .  S
C200        C408   1.452       .  S
N211        C216   1.354       .  A
N211        C215   1.353       .  A
N211        H243   1.040       .  S
N212        C219   1.350       .  A
N212        C220   1.350   1_455  A
N213        C218   1.353   1_545  A
N213        C217   1.354       .  A
N213        H244   1.039       .  S
N214        C221   1.351       .  A
N214        C222   1.350   1_455  A
C215        C223   1.387       .  A
C215        C231   1.413       .  A
C216        C232   1.414   1_545  A
C216        C224   1.388       .  A
C217        C225   1.387       .  A
C217        C234   1.412       .  A
C218        C233   1.414       .  A
C218        C226   1.389   1_565  A
C219        C231   1.409       .  A
C219        C227   1.387       .  A
C220        C234   1.408       .  A
C220        C228   1.386   1_655  A
C221        C229   1.386       .  A
C221        C232   1.410       .  A
C222        C230   1.386   1_655  A
C222        C233   1.409       .  A
C223        C224   1.374       .  A
C223        H235   1.082       .  S
C224        H236   1.082   1_545  S
C225        C226   1.373       .  A
C225        H237   1.082       .  S
C226        H238   1.082   1_545  S
C227        C228   1.372       .  A
C227        H239   1.082       .  S
C228        H240   1.082   1_455  S
C229        C230   1.373       .  A
C229        H241   1.082       .  S
C230        H242   1.082   1_455  S
C231        C469   1.448       .  S
C232        C456   1.452       .  S
C233        C524   1.447       .  S
C234        C493   1.449       .  S
N245        C250   1.356       .  A
N245        C249   1.354       .  A
N245        H277   1.037       .  S
N246        C253   1.351   1_554  A
N246        C254   1.352       .  A
N247        C252   1.355       .  A
N247        C251   1.356       .  A
N247        H278   1.038       .  S
N248        C255   1.352       .  A
N248        C256   1.351       .  A
C249        C257   1.388       .  A
C249        C265   1.414   1_545  A
C250        C266   1.414       .  A
C250        C258   1.387       .  A
C251        C259   1.387       .  A
C251        C268   1.415   1_545  A
C252        C267   1.415       .  A
C252        C260   1.387       .  A
C253        C265   1.411       .  A
C253        C261   1.387   1_556  A
C254        C268   1.411       .  A
C254        C262   1.386       .  A
C255        C263   1.386       .  A
C255        C266   1.411   1_554  A
C256        C264   1.387       .  A
C256        C267   1.410       .  A
C257        C258   1.373       .  A
C257        H269   1.082       .  S
C258        H270   1.082       .  S
C259        C260   1.372       .  A
C259        H271   1.082   1_545  S
C260        H272   1.082       .  S
C261        C262   1.373       .  A
C261        H273   1.082   1_554  S
C262        H274   1.082       .  S
C263        C264   1.373       .  A
C263        H275   1.082   1_554  S
C264        H276   1.082       .  S
C265        C460   1.450       .  S
C266        C476   1.455       .  S
C267        C404   1.451       .  S
C268        C437   1.455       .  S
N279        C284   1.355       .  A
N279        C283   1.356   1_455  A
N279        H311   1.040   1_556  S
N280        C287   1.350       .  A
N280        C288   1.351       .  A
N281        C286   1.354       .  A
N281        C285   1.355   1_455  A
N281        H312   1.040       .  S
N282        C289   1.352       .  A
N282        C290   1.353       .  A
C283        C291   1.387       .  A
C283        C299   1.416       .  A
C284        C300   1.417       .  A
C284        C292   1.388       .  A
C285        C293   1.387       .  A
C285        C302   1.414       .  A
C286        C301   1.415       .  A
C286        C294   1.388       .  A
C287        C299   1.409   1_554  A
C287        C295   1.387       .  A
C288        C302   1.409       .  A
C288        C296   1.386       .  A
C289        C297   1.387       .  A
C289        C300   1.413   1_554  A
C290        C298   1.386       .  A
C290        C301   1.413       .  A
C291        C292   1.375   1_655  A
C291        H303   1.082       .  S
C292        H304   1.082       .  S
C293        C294   1.374   1_655  A
C293        H305   1.082       .  S
C294        H306   1.082       .  S
C295        C296   1.372       .  A
C295        H307   1.082   1_554  S
C296        H308   1.082       .  S
C297        C298   1.374       .  A
C297        H309   1.082       .  S
C298        H310   1.082       .  S
C299        C500   1.452       .  S
C300        C477   1.455       .  S
C301        C397   1.456       .  S
C302        C388   1.453       .  S
N313        C318   1.353   1_545  A
N313        C317   1.350       .  A
N313        H345   1.037       .  S
N314        C321   1.352   1_554  A
N314        C322   1.353       .  A
N315        C320   1.350   1_545  A
N315        C319   1.351       .  A
N315        H346   1.039       .  S
N316        C323   1.350   1_554  A
N316        C324   1.350       .  A
C317        C325   1.388       .  A
C317        C333   1.412       .  A
C318        C334   1.414       .  A
C318        C326   1.387       .  A
C319        C327   1.387       .  A
C319        C336   1.410       .  A
C320        C335   1.411       .  A
C320        C328   1.388       .  A
C321        C333   1.413       .  A
C321        C329   1.387   1_556  A
C322        C336   1.412       .  A
C322        C330   1.386       .  A
C323        C331   1.387   1_556  A
C323        C334   1.410       .  A
C324        C332   1.387       .  A
C324        C335   1.410       .  A
C325        C326   1.378   1_545  A
C325        H337   1.082       .  S
C326        H338   1.082       .  S
C327        C328   1.378   1_545  A
C327        H339   1.082       .  S
C328        H340   1.082       .  S
C329        C330   1.372       .  A
C329        H341   1.082   1_554  S
C330        H342   1.082       .  S
C331        C332   1.372       .  A
C331        H343   1.082   1_554  S
C332        H344   1.082       .  S
C333        C489   1.447       .  S
C334        C516   1.450       .  S
C335        C420   1.444       .  S
C336        C384   1.451       .  S
N347        C352   1.353       .  A
N347        C351   1.354       .  A
N347        H379   1.034       .  S
N348        C355   1.353   1_554  A
N348        C356   1.352       .  A
N349        C354   1.353       .  A
N349        C353   1.353       .  A
N349        H380   1.034       .  S
N350        C357   1.353   1_554  A
N350        C358   1.354       .  A
C351        C359   1.387       .  A
C351        C367   1.416       .  A
C352        C368   1.416   1_455  A
C352        C360   1.387       .  A
C353        C361   1.387       .  A
C353        C370   1.417       .  A
C354        C369   1.416   1_455  A
C354        C362   1.387       .  A
C355        C367   1.414       .  A
C355        C363   1.386   1_556  A
C356        C370   1.415       .  A
C356        C364   1.388       .  A
C357        C365   1.387       .  A
C357        C368   1.417       .  A
C358        C366   1.386       .  A
C358        C369   1.416       .  A
C359        C360   1.377       .  A
C359        H371   1.082       .  S
C360        H372   1.082       .  S
C361        C362   1.378       .  A
C361        H373   1.082       .  S
C362        H374   1.082   1_455  S
C363        C364   1.370       .  A
C363        H375   1.082   1_554  S
C364        H376   1.082       .  S
C365        C366   1.373   1_556  A
C365        H377   1.082       .  S
C366        H378   1.082       .  S
C367        C449   1.457       .  S
C368        C520   1.455       .  S
C369        C416   1.456       .  S
C370        C436   1.452       .  S
C381        C382   1.208       .  T
C382        C383   1.415       .  S
C383        C384   1.208       .  T
C385        C386   1.208       .  T
C386        C387   1.415       .  S
C387        C388   1.208       .  T
C389        C390   1.208       .  T
C390        C391   1.415       .  S
C391        C392   1.208       .  T
C393        C394   1.342       .  D
C393        H395   1.087       .  S
C394        H396   1.087       .  S
C397        C398   1.210       .  T
C398        C399   1.418       .  S
C399        C400   1.210       .  T
C401        C402   1.206       .  T
C402        C403   1.412       .  S
C403        C404   1.206       .  T
C405        C406   1.207       .  T
C406        C407   1.414       .  S
C407        C408   1.207       .  T
C409        C410   1.338       .  D
C409        H411   1.087       .  S
C410        H412   1.087       .  S
C413        C414   1.210       .  T
C414        C415   1.419       .  S
C415        C416   1.210       .  T
C417        C418   1.202       .  T
C418        C419   1.406       .  S
C419        C420   1.202       .  T
C421        C422   1.209       .  T
C422        C423   1.417       .  S
C423        C424   1.209       .  T
C425        C426   1.345       .  D
C425        H427   1.087       .  S
C426        H428   1.087       .  S
C429        C430   1.342       .  D
C429        H431   1.087       .  S
C430        H432   1.087       .  S
C433        C434   1.207       .  T
C434        C435   1.415       .  S
C435        C436   1.208       .  T
C437        C438   1.209       .  T
C438        C439   1.417       .  S
C439        C440   1.209       .  T
C441        C442   1.202       .  T
C442        C443   1.405       .  S
C443        C444   1.202       .  T
C445        C446   1.342       .  D
C445        H447   1.087       .  S
C446        H448   1.087       .  S
C449        C450   1.210       .  T
C450        C451   1.419       .  S
C451        C452   1.210       .  T
C453        C454   1.207       .  T
C454        C455   1.414       .  S
C455        C456   1.207       .  T
C457        C458   1.205       .  T
C458        C459   1.411       .  S
C459        C460   1.205       .  T
C461        C462   1.342       .  D
C461        H463   1.087       .  S
C462        H464   1.087       .  S
C465        C466   1.339       .  D
C465        H467   1.087       .  S
C466        H468   1.087       .  S
C469        C470   1.204       .  T
C470        C471   1.409       .  S
C471        C472   1.204       .  T
C473        C474   1.209       .  T
C474        C475   1.416       .  S
C475        C476   1.209       .  T
C477        C478   1.209       .  T
C478        C479   1.417       .  S
C479        C480   1.209       .  T
C481        C482   1.341       .  D
C481        H483   1.087       .  S
C482        H484   1.087       .  S
C485        C486   1.345       .  D
C485        H487   1.087       .  S
C486        H488   1.087       .  S
C489        C490   1.204       .  T
C490        C491   1.409       .  S
C491        C492   1.204       .  T
C493        C494   1.205       .  T
C494        C495   1.410       .  S
C495        C496   1.205       .  T
C497        C498   1.207       .  T
C498        C499   1.414       .  S
C499        C500   1.207       .  T
C501        C502   1.345       .  D
C501        H503   1.087       .  S
C502        H504   1.087       .  S
C505        C506   1.345       .  D
C505        H507   1.087       .  S
C506        H508   1.087       .  S
C509        C510   1.338       .  D
C509        H511   1.087       .  S
C510        H512   1.087       .  S
C513        C514   1.206       .  T
C514        C515   1.413       .  S
C515        C516   1.206       .  T
C517        C518   1.210       .  T
C518        C519   1.418       .  S
C519        C520   1.209       .  T
C521        C522   1.204       .  T
C522        C523   1.409       .  S
C523        C524   1.204       .  T
