geometry optimzed in LAMMPS
_audit_creation_date              2020-12-01 
_audit_creation_method            'lammps2cif' 
_symmetry_space_group_name_H-M    'P1' 
_symmetry_Int_Tables_number       1 
_symmetry_cell_setting            triclinic 
loop_ 
_symmetry_equiv_pos_as_xyz 
  x,y,z 
_cell_length_a                    43.8606243 
_cell_length_b                    43.89251734217543 
_cell_length_c                    40.73545169799493 
_cell_angle_alpha                 89.0242611109025 
_cell_angle_beta                  90.97897629203283 
_cell_angle_gamma                 120.02230528777099 
loop_ 
_atom_site_label 
_atom_site_type_symbol 
_atom_site_fract_x 
_atom_site_fract_y 
_atom_site_fract_z 
_atom_site_charge 
C1          C  0.49110944  0.71840781  0.10006807     0.81900
N2          N  0.48924434  0.71381851  0.13305769    -0.76400
C3          C  0.49116293  0.73927494  0.15279690     0.84300
N4          N  0.49507026  0.76961158  0.13923467    -0.76400
C5          C  0.49711690  0.77419088  0.10608961     0.84400
N6          N  0.49504166  0.74853139  0.08656523    -0.78100
C7          C  0.47917626  0.71368556  0.29191577     0.81900
N8          N  0.48276559  0.71934421  0.25894633    -0.76400
C9          C  0.48322732  0.74818333  0.24541154     0.84300
N10         N  0.47997974  0.77102574  0.26501785    -0.76400
C11         C  0.47631545  0.76526862  0.29784705     0.84400
N12         N  0.47592993  0.73666277  0.31130668    -0.78100
C13         C  0.21363995  0.77346021  0.28871238     0.81900
N14         N  0.18886407  0.74691456  0.30720361    -0.76400
C15         C  0.16178213  0.71863151  0.29250615     0.84300
N16         N  0.15943502  0.71676801  0.25930722    -0.76400
C17         C  0.18418836  0.74315879  0.24060400     0.84400
N18         N  0.21140666  0.77156748  0.25542817    -0.78100
C19         C  0.23202340  0.77983325  0.09728991     0.81900
N20         N  0.23257766  0.78286233  0.13036520    -0.76400
C21         C  0.20479477  0.75937864  0.14849509     0.84300
N22         N  0.17625911  0.73270094  0.13321857    -0.76400
C23         C  0.17570339  0.72977399  0.10001975     0.84400
N24         N  0.20361645  0.75333036  0.08212249    -0.78100
C25         C  0.16873386  0.46094668  0.10151866     0.81900
N26         N  0.19744176  0.46144454  0.08909938    -0.76400
C27         C  0.22076582  0.45873998  0.10947120     0.84300
N28         N  0.21527123  0.45544350  0.14241843    -0.76400
C29         C  0.18639964  0.45494362  0.15496275     0.84400
N30         N  0.16326015  0.45772963  0.13434775    -0.78100
C31         C  0.16037670  0.44228860  0.29399201     0.81900
N32         N  0.18272805  0.43779028  0.31420518    -0.76400
C33         C  0.21008299  0.43587802  0.30155803     0.84300
N34         N  0.21530734  0.43872589  0.26869597    -0.76400
C35         C  0.19312350  0.44326356  0.24824441     0.84400
N36         N  0.16556672  0.44510914  0.26100322    -0.78100
C37         C  0.74616930  0.23802934  0.28839586     0.81900
N38         N  0.72016579  0.21210917  0.30648144    -0.76400
C39         C  0.69378226  0.18341736  0.29153585     0.84300
N40         N  0.69338884  0.18065962  0.25833284    -0.76400
C41         C  0.71940586  0.20651589  0.24000943     0.84400
N42         N  0.74580652  0.23523228  0.25521965    -0.78100
C43         C  0.76716978  0.25051120  0.09689951     0.81900
N44         N  0.73970173  0.22339587  0.08127965    -0.76400
C45         C  0.71355745  0.19702235  0.09885396     0.84300
N46         N  0.71475597  0.19787588  0.13220286    -0.76400
C47         C  0.74226419  0.22506556  0.14804111     0.84400
N48         N  0.76839160  0.25136477  0.13021377    -0.78100
C49         C  0.70030234  0.51249985  0.10539990     0.81900
N50         N  0.72588450  0.51302525  0.08685211    -0.76400
C51         C  0.75433009  0.51404960  0.10144990     0.84300
N52         N  0.75724322  0.51444686  0.13464036    -0.76400
C53         C  0.73168651  0.51388822  0.15339539     0.84400
N54         N  0.70309799  0.51286805  0.13864892    -0.78100
C55         C  0.68993570  0.51022398  0.29738067     0.81900
N56         N  0.71800076  0.51060038  0.31226841    -0.76400
C57         C  0.74404437  0.51165374  0.29393151     0.84300
N58         N  0.74197948  0.51231596  0.26063929    -0.76400
C59         C  0.71380795  0.51194017  0.24564708     0.84400
N60         N  0.68786357  0.51086840  0.26416805    -0.78100
C61         C  0.44389759  0.20104382  0.29079816     0.81900
N62         N  0.44134711  0.22519962  0.30895736    -0.76400
C63         C  0.43886243  0.25163719  0.29392678     0.84300
N64         N  0.43888980  0.25392208  0.26064588    -0.76400
C65         C  0.44140316  0.22966091  0.24236269     0.84400
N66         N  0.44387897  0.20319616  0.25759599    -0.78100
C67         C  0.44170191  0.18765658  0.09902041     0.81900
N68         N  0.44280556  0.18580378  0.13230027    -0.76400
C69         C  0.44192325  0.21085502  0.15075935     0.84300
N70         N  0.43994737  0.23766558  0.13570499    -0.76400
C71         C  0.43886720  0.23946705  0.10253043     0.84400
N72         N  0.43973176  0.21448661  0.08416229    -0.78100
C73         C  0.48440199  0.58622734  0.01718683     0.44100
N74         N  0.47564648  0.53453740  0.01008718     0.03000
C75         C  0.51947963  0.48268641  0.36930714    -0.04900
H76         H  0.43137616  0.52713926  0.34781898     0.08500
C77         C  0.34283710  0.42446094  0.42100905    -0.05200
Co78       Co  0.50783516  0.53549072  0.44750617     0.74200
N79         N  0.45924166  0.52445413  0.39100375    -0.24400
Co80       Co  0.44818785  0.47262093  0.39424335     0.74100
C81         C  0.34127940  0.44135815  0.39054770     0.44200
N82         N  0.38443655  0.43996417  0.49730908     0.02600
N83         N  0.39450953  0.45429939  0.39930055     0.02700
N84         N  0.55786715  0.52375488  0.40481463    -0.45200
H85         H  0.50452025  0.60769446  0.46948831     0.08500
N86         N  0.48210555  0.54862421  0.41115502     0.03000
N87         N  0.43773939  0.42112383  0.39838859     0.02800
C88         C  0.43327728  0.37159726  0.38807789     0.44400
N89         N  0.40747120  0.46843644  0.01941091    -0.23900
C90         C  0.56683866  0.53122027  0.48790940    -0.04800
N91         N  0.46908975  0.55368102  0.03043483    -0.45000
N92         N  0.44587987  0.40453960  0.37645505    -0.45200
C93         C  0.56337206  0.50196981  0.02145131     0.44100
N94         N  0.52487778  0.51479729  0.41117845     0.03000
N95         N  0.44397017  0.42840116  0.02000016    -0.23900
N96         N  0.48890849  0.55425706  0.48379652    -0.24400
N97         N  0.42790101  0.40674709  0.49636054     0.02600
H98         H  0.47334824  0.42356030  0.06092268     0.08500
H99         H  0.40163107  0.34608056  0.43503533     0.08600
N100        N  0.50198333  0.49091613  0.39078737    -0.24400
N101        N  0.37691197  0.43402366  0.42445341    -0.24000
N102        N  0.51217405  0.49445894  0.01148832     0.03000
C103        C  0.46786528  0.57703373  0.37699285     0.44400
C104        C  0.39203451  0.47883597  0.04119860    -0.05300
N105        N  0.42006773  0.40081635  0.42347210    -0.24000
H106        H  0.32185276  0.40718898  0.43733591     0.08500
N107        N  0.48844315  0.58069407  0.40332018    -0.45300
H108        H  0.40513130  0.49693880  0.06112868     0.08500
C109        C  0.43329408  0.37484426  0.03215430     0.44200
C110        C  0.49140301  0.58580886  0.48645678    -0.04800
Co111      Co  0.45994257  0.48158627  0.01593458     0.73800
N112        N  0.35135359  0.43010918  0.50452151    -0.45000
C113        C  0.55622980  0.50433365  0.37887635     0.44500
N114        N  0.53060869  0.48767087  0.03347119    -0.45000
Co115      Co  0.40169515  0.41967270  0.46047227     0.73900
C116        C  0.41584050  0.36867809  0.41904898    -0.05300
C117        C  0.44873618  0.53997174  0.36847084    -0.04800
N118        N  0.53269852  0.52146260  0.48398929    -0.24400
N119        N  0.37401024  0.45913931  0.37816029    -0.45100
H120        H  0.50790614  0.46422284  0.34938718     0.08500
C121        C  0.45411277  0.41157368  0.04137784    -0.05300
Cl122      Cl  0.45472591  0.47762115  0.45402486    -0.48300
C123        C  0.35484347  0.45934863  0.03248298     0.44300
H124        H  0.58797235  0.54854131  0.47173835     0.08500
N125        N  0.42244230  0.37481634  0.50331707    -0.45000
C126        C  0.03883923  0.58508514  0.37993371     0.44100
N127        N  0.99412159  0.53461773  0.38911286     0.03000
C128        C  0.89829328  0.49308976  0.02444630    -0.04900
H129        H  0.03479409  0.55020537  0.04609539     0.08500
C130        C  0.01793019  0.43080449  0.48160085    -0.05200
Co131      Co  0.95633413  0.53407918  0.44954503     0.74200
N132        N  0.00176767  0.54527621  0.00424783    -0.24400
Co133      Co  0.96494272  0.49199007  0.00142047     0.74100
C134        C  0.04882927  0.47266254  0.00753696     0.44200
N135        N  0.99146002  0.44285870  0.40450187     0.02600
N136        N  0.00475527  0.47957605  0.99756552     0.02700
N137        N  0.89376175  0.52112500  0.49133994    -0.45200
H138        H  0.02918282  0.60891466  0.42571752     0.08500
N139        N  0.99457556  0.54924629  0.48684504     0.03000
N140        N  0.92803687  0.43873939  0.99757026     0.02800
C141        C  0.88714821  0.38624521  0.00798396     0.44400
N142        N  0.99183154  0.46625043  0.38346372    -0.23900
C143        C  0.89233248  0.52572299  0.40724403    -0.04800
N144        N  0.01997030  0.55225453  0.36807115    -0.45000
N145        N  0.90372762  0.41935700  0.01945439    -0.45200
C146        C  0.87545778  0.50814536  0.37667578     0.44100
N147        N  0.91782433  0.51220484  0.48537806     0.03000
N148        N  0.91526404  0.42944030  0.38280860    -0.23900
N149        N  0.99478344  0.55424423  0.41364373    -0.24400
N150        N  0.91443628  0.40592609  0.40400762     0.02600
H151        H  0.88422808  0.42512994  0.33951579     0.08500
H152        H  0.88124075  0.34506068  0.46698897     0.08600
N153        N  0.92516676  0.50451450  0.00356490    -0.24400
N154        N  0.99144269  0.43750413  0.47754068    -0.24000
N155        N  0.91733121  0.49807976  0.38802111     0.03000
C156        C  0.04381718  0.59900276  0.01649897     0.44400
C157        C  0.01772711  0.47506053  0.36188310    -0.05300
N158        N  0.91458902  0.40040967  0.47739439    -0.24000
H159        H  0.02382469  0.41498271  0.46569632     0.08500
N160        N  0.01899923  0.58184346  0.49452269    -0.45300
H161        H  0.02380141  0.49293480  0.34123847     0.08500
C162        C  0.87210367  0.37607499  0.37043441     0.44200
C163        C  0.02224632  0.58682094  0.40985882    -0.04800
Co164      Co  0.95459398  0.48219577  0.38522553     0.73800
N165        N  0.01607770  0.43466373  0.39830228    -0.45000
C166        C  0.88000963  0.51159768  0.01415011     0.44500
N167        N  0.89236847  0.49177763  0.36597152    -0.45000
Co168      Co  0.95291508  0.42092602  0.44084012     0.73900
C169        C  0.88785020  0.36748272  0.48227850    -0.05300
C170        C  0.02810240  0.56218609  0.02591983    -0.04800
N171        N  0.91802968  0.51795657  0.41234013    -0.24400
N172        N  0.03019716  0.48678999  0.01930615    -0.45100
H173        H  0.89271583  0.47465048  0.04451743     0.08500
C174        C  0.88938267  0.41295442  0.36055238    -0.05300
Cl175      Cl  0.95454946  0.47747485  0.44522694    -0.48300
C176        C  0.03375619  0.45433552  0.37199183     0.44300
H177        H  0.88679770  0.54221290  0.42258296     0.08500
N178        N  0.88914023  0.37345630  0.39726185    -0.45000
C179        C  0.47030187  0.89016105  0.38249650     0.44100
N180        N  0.46834304  0.93706025  0.38992448     0.03000
C181        C  0.54019985  0.05200228  0.02671611    -0.04900
H182        H  0.46147152  0.91772806  0.05170592     0.08500
C183        C  0.34247681  0.91997867  0.47510393    -0.05200
Co184      Co  0.50623145  0.97347856  0.45139324     0.74200
N185        N  0.48719475  0.94865440  0.00851499    -0.24400
Co186      Co  0.47082669  0.98544329  0.00420868     0.74100
C187        C  0.36793484  0.90135339  0.01136174     0.44200
N188        N  0.38241614  0.94620551  0.40070918     0.02600
N189        N  0.41830773  0.94568722  0.00102711     0.02700
N190        N  0.55719075  0.03542955  0.49401822    -0.45200
H191        H  0.50300284  0.89797223  0.42954328     0.08500
N192        N  0.48085510  0.93516970  0.48796328     0.03000
N193        N  0.45474907  0.02232626  0.99892874     0.02800
C194        C  0.44533301  0.06463106  0.00778131     0.44400
N195        N  0.40474673  0.94408333  0.38086414    -0.23900
C196        C  0.56452425  0.03714825  0.41106841    -0.04800
N197        N  0.45834399  0.91061134  0.36937774    -0.45000
N198        N  0.46169807  0.04780888  0.01979788    -0.45200
C199        C  0.56496392  0.05489075  0.38029320     0.44100
N200        N  0.52399822  0.01172077  0.48751598     0.03000
N201        N  0.44875110  0.02024588  0.38133099    -0.23900
N202        N  0.48653511  0.93522914  0.41530057    -0.24400
N203        N  0.42684828  0.02269511  0.40152808     0.02600
H204        H  0.47878751  0.05177172  0.33992123     0.08500
H205        H  0.40062033  0.05789425  0.46267588     0.08600
N206        N  0.52350592  0.02512524  0.00585605    -0.24400
N207        N  0.37618690  0.94553172  0.47306990    -0.24000
N208        N  0.51235752  0.01364998  0.38938615     0.03000
C209        C  0.49992133  0.90756974  0.02269181     0.44400
C210        C  0.38657179  0.91855812  0.35903692    -0.05300
N211        N  0.41962577  0.02200091  0.47435528    -0.24000
H212        H  0.32162439  0.91542775  0.45786654     0.08500
N213        N  0.48710891  0.90942684  0.49625030    -0.45300
H214        H  0.39764009  0.91122382  0.33921983     0.08500
C215        C  0.44403441  0.06680950  0.36923178     0.44200
C216        C  0.48927172  0.90632627  0.41263838    -0.04800
Co217      Co  0.45865564  0.97869336  0.38468998     0.73800
N218        N  0.34911276  0.92312453  0.39357359    -0.45000
C219        C  0.57681613  0.06950594  0.01661422     0.44500
N220        N  0.53189917  0.03889119  0.36815633    -0.45000
Co221      Co  0.40063309  0.98428255  0.43735908     0.73900
C222        C  0.41522810  0.04982489  0.47875263    -0.05300
C223        C  0.47902927  0.92344234  0.03128066    -0.04800
N224        N  0.53066556  0.01193710  0.41470374    -0.24400
N225        N  0.40107963  0.92045254  0.02303515    -0.45100
H226        H  0.52832295  0.05784303  0.04691600     0.08500
C227        C  0.46094094  0.04711869  0.35985089    -0.05300
Cl228      Cl  0.45331133  0.97866473  0.44440363    -0.48300
C229        C  0.34994086  0.90479094  0.36770613     0.44300
H230        H  0.58600815  0.04208654  0.42764147     0.08500
N231        N  0.42298249  0.05021553  0.39493436    -0.45000
C232        C  0.43398190  0.34552642  0.04717969    -0.16800
C233        C  0.43464505  0.32086287  0.05966914     0.07200
C234        C  0.43570262  0.29215465  0.07426664     0.09100
C235        C  0.43696203  0.26788797  0.08695524    -0.17700
C236        C  0.44350344  0.09186892  0.02497875    -0.16800
C237        C  0.44283867  0.11403099  0.04146402     0.07200
C238        C  0.44255395  0.13945310  0.06193161     0.09100
C239        C  0.44230620  0.16120845  0.07935940    -0.17700
C240        C  0.44111104  0.23217546  0.20625064    -0.14800
C241        C  0.44284733  0.20856498  0.18687466    -0.29900
H242        H  0.43912850  0.25391464  0.19541309     0.14200
H243        H  0.44470459  0.18674944  0.19769501     0.14800
C244        C  0.43634641  0.27708304  0.31347034    -0.16800
C245        C  0.43473973  0.29787368  0.33120638     0.07200
C246        C  0.43353882  0.32228132  0.35237682     0.09100
C247        C  0.43309389  0.34399605  0.36968540    -0.17700
C248        C  0.44590382  0.17287853  0.30676031    -0.16800
C249        C  0.44671791  0.14900769  0.32079721     0.07200
C250        C  0.44662713  0.12081368  0.33771732     0.09100
C251        C  0.44577078  0.09638138  0.35228229    -0.17700
C252        C  0.66240294  0.50918893  0.31666110    -0.16800
C253        C  0.63881639  0.50836673  0.33207707     0.07200
C254        C  0.61066948  0.50733146  0.34923702     0.09100
C255        C  0.58612113  0.50619481  0.36316570    -0.17700
C256        C  0.77355823  0.51182348  0.30995191    -0.16800
C257        C  0.79751858  0.51161592  0.32473529     0.07200
C258        C  0.82485127  0.51092234  0.34299388     0.09100
C259        C  0.84790246  0.50990773  0.35868930    -0.17700
C260        C  0.67011295  0.51084712  0.08956978    -0.16800
C261        C  0.64544436  0.50901068  0.07443939     0.07200
C262        C  0.61705484  0.50654096  0.05562603     0.09100
C263        C  0.59276903  0.50438070  0.03957058    -0.17700
C264        C  0.71065758  0.51250780  0.20955392    -0.14800
C265        C  0.73527306  0.51386923  0.18947819    -0.29600
H266        H  0.68721178  0.51164588  0.19929143     0.14200
H267        H  0.75872690  0.51472736  0.19971014     0.14800
C268        C  0.78089686  0.51394193  0.08174248    -0.16800
C269        C  0.80293003  0.51337682  0.06506849     0.07200
C270        C  0.82891334  0.51249085  0.04609652     0.09100
C271        C  0.85178419  0.51187898  0.03083726    -0.17700
C272        C  0.60646000  0.09722290  0.03362615    -0.16800
C273        C  0.63104112  0.11989798  0.04872216     0.07200
C274        C  0.65965929  0.14618677  0.06681194     0.09100
C275        C  0.68413437  0.16893315  0.08196144    -0.17700
C276        C  0.86151281  0.35614715  0.02614432    -0.16800
C277        C  0.84042699  0.33146482  0.04228927     0.07200
C278        C  0.81570863  0.30302453  0.06166288     0.09100
C279        C  0.79407467  0.27898544  0.07806464    -0.17700
C280        C  0.59463771  0.08307450  0.36369222    -0.16800
C281        C  0.61794196  0.10629805  0.34782795     0.07200
C282        C  0.64422007  0.13310040  0.32804103     0.09100
C283        C  0.66655677  0.15590244  0.31104201    -0.17700
C284        C  0.74374956  0.22727689  0.18431861    -0.14800
C285        C  0.71834089  0.20317327  0.20380673    -0.29900
H286        H  0.76629206  0.24994021  0.19522312     0.14200
H287        H  0.69583412  0.18042402  0.19296828     0.14800
C288        C  0.84521044  0.34663344  0.35252406    -0.16800
C289        C  0.82292822  0.32209703  0.33711236     0.07200
C290        C  0.79673366  0.29326588  0.31919083     0.09100
C291        C  0.77398758  0.26833955  0.30454388    -0.17700
C292        C  0.31037021  0.43714977  0.37394503    -0.16800
C293        C  0.28518917  0.43426418  0.35895679     0.07200
C294        C  0.25712611  0.43248833  0.34011744     0.09100
C295        C  0.23471285  0.43289693  0.32297234    -0.17700
C296        C  0.06054552  0.45146866  0.35477774    -0.16800
C297        C  0.08276736  0.44938394  0.33952453     0.07200
C298        C  0.10892767  0.44697950  0.32182843     0.09100
C299        C  0.13186197  0.44484758  0.30793295    -0.17700
C300        C  0.20001386  0.44678075  0.21258994    -0.14800
C301        C  0.17945278  0.45133221  0.19061008    -0.29900
H302        H  0.22281564  0.44561814  0.20428145     0.14200
H303        H  0.15652342  0.45226945  0.19889673     0.14800
C304        C  0.25088914  0.45895593  0.09577301    -0.16800
C305        C  0.27517134  0.45899993  0.08219526     0.07200
C306        C  0.30286263  0.45893346  0.06492457     0.09100
C307        C  0.32636819  0.45895568  0.04989484    -0.17700
C308        C  0.07597213  0.47048747  0.02562601    -0.16800
C309        C  0.09795013  0.46835750  0.04198302     0.07200
C310        C  0.12298890  0.46577940  0.06214844     0.09100
C311        C  0.14402122  0.46359775  0.07993984    -0.17700
C312        C  0.07148222  0.62839090  0.03370332    -0.16800
C313        C  0.09460365  0.65190143  0.04937831     0.07200
C314        C  0.12190276  0.67874852  0.06816583     0.09100
C315        C  0.14587173  0.70173950  0.08356512    -0.17700
C316        C  0.26151099  0.80465725  0.07838764    -0.16800
C317        C  0.28628375  0.82586273  0.06269230     0.07200
C318        C  0.31508613  0.85128901  0.04453402     0.09100
C319        C  0.33940907  0.87371653  0.02922683    -0.17700
C320        C  0.13605311  0.69034210  0.31206483    -0.16800
C321        C  0.11453152  0.66635989  0.32840177     0.07200
C322        C  0.08906838  0.63814755  0.34715726     0.09100
C323        C  0.06663358  0.61393685  0.36258430    -0.17700
C324        C  0.18136519  0.73997674  0.20450389    -0.14800
C325        C  0.20656951  0.76324760  0.18451300    -0.29900
H326        H  0.15831609  0.71730437  0.19422798     0.14200
H327        H  0.22985186  0.78561855  0.19485984     0.14800
C328        C  0.24248828  0.80309516  0.30457590    -0.16800
C329        C  0.26650139  0.82711674  0.31901310     0.07200
C330        C  0.29481385  0.85455911  0.33641880     0.09100
C331        C  0.31952317  0.87761101  0.35106949    -0.17700
C332        C  0.47810307  0.68320658  0.30659529    -0.16800
C333        C  0.47627454  0.65832130  0.32137554     0.07200
C334        C  0.47337304  0.62983985  0.34045755     0.09100
C335        C  0.47070634  0.60577353  0.35728548    -0.17700
C336        C  0.47277743  0.78945341  0.31821875    -0.16800
C337        C  0.47034028  0.81072559  0.33442671     0.07200
C338        C  0.46865612  0.83696419  0.35221682     0.09100
C339        C  0.46859930  0.86065193  0.36648369    -0.17700
C340        C  0.48887327  0.69132802  0.07957343    -0.16800
C341        C  0.48726252  0.66797349  0.06338195     0.07200
C342        C  0.48589399  0.64006943  0.04586834     0.09100
C343        C  0.48510234  0.61571540  0.03213701    -0.17700
C344        C  0.50065566  0.80563349  0.09122629    -0.16800
C345        C  0.50255652  0.83042157  0.07624849     0.07200
C346        C  0.50328883  0.85793218  0.05722623     0.09100
C347        C  0.50253374  0.88071642  0.04093846    -0.17700
C348        C  0.48687231  0.75515750  0.20973089    -0.14800
C349        C  0.48857587  0.73302536  0.18857202    -0.29900
H350        H  0.48761313  0.77894384  0.20066634     0.14200
H351        H  0.48731517  0.70899290  0.19762047     0.14800
C352        C  0.47737138  0.71411572  0.59983444     0.81900
N353        N  0.48291757  0.71190759  0.63236483    -0.76400
C354        C  0.48733476  0.73783984  0.65288593     0.84300
N355        N  0.48610597  0.76631800  0.64050626    -0.76400
C356        C  0.48055590  0.76852959  0.60775402     0.84400
N357        N  0.47619809  0.74237812  0.58752749    -0.78100
C358        C  0.49998512  0.71897248  0.79214971     0.81900
N359        N  0.49816901  0.72286409  0.75904112    -0.76400
C360        C  0.50033981  0.75286057  0.74631739     0.84300
N361        N  0.50404991  0.77849328  0.76688694    -0.76400
C362        C  0.50582790  0.77462049  0.79979136     0.84400
N363        N  0.50364263  0.74483514  0.81242523    -0.78100
C364        C  0.23020738  0.78528372  0.78292279     0.81900
N365        N  0.20543011  0.76346133  0.80459008    -0.76400
C366        C  0.17436906  0.73669868  0.79362352     0.84300
N367        N  0.16800588  0.73148320  0.76104363    -0.76400
C368        C  0.19237944  0.75298850  0.73902704     0.84400
N369        N  0.22379349  0.78012888  0.74997434    -0.78100
C370        C  0.21072436  0.77377858  0.58924635     0.81900
N371        N  0.21732984  0.78048969  0.62166929    -0.76400
C372        C  0.19538119  0.75732452  0.64436157     0.84300
N373        N  0.16643629  0.72688475  0.63425469    -0.76400
C374        C  0.15983438  0.72014030  0.60154566     0.84400
N375        N  0.18211339  0.74363835  0.57916981    -0.78100
C376        C  0.16348472  0.44449269  0.59855077     0.81900
N377        N  0.19144566  0.44324672  0.58647322    -0.76400
C378        C  0.21561009  0.44256898  0.60728366     0.84300
N379        N  0.21177700  0.44325219  0.64032381    -0.76400
C380        C  0.18362971  0.44450652  0.65245698     0.84400
N381        N  0.15969486  0.44517900  0.63139812    -0.78100
C382        C  0.16636336  0.45561159  0.79071196     0.81900
N383        N  0.18956692  0.45392769  0.81203465    -0.76400
C384        C  0.21560314  0.44893354  0.80074564     0.84300
N385        N  0.21863483  0.44579099  0.76809572    -0.76400
C386        C  0.19557865  0.44742752  0.74651875     0.84400
N387        N  0.16935452  0.45242049  0.75792750    -0.78100
C388        C  0.75742993  0.25571444  0.79311623     0.81900
N389        N  0.73136252  0.22716459  0.80850659    -0.76400
C390        C  0.70760175  0.19927694  0.79071893     0.84300
N391        N  0.70988958  0.20002680  0.75744770    -0.76400
C392        C  0.73613706  0.22873758  0.74196749     0.84400
N393        N  0.75982177  0.25646547  0.75997826    -0.78100
C394        C  0.74610109  0.23698091  0.60094837     0.81900
N395        N  0.72017465  0.21047160  0.58331169    -0.76400
C396        C  0.69337631  0.18270113  0.59890703     0.84300
N397        N  0.69237212  0.18140471  0.63212603    -0.76400
C398        C  0.71812847  0.20776166  0.65001384     0.84400
N399        N  0.74510149  0.23570691  0.63432933    -0.78100
C400        C  0.70792414  0.52951789  0.60238966     0.81900
N401        N  0.73236817  0.52679015  0.58471780    -0.76400
C402        C  0.75978965  0.52641599  0.60017761     0.84300
N403        N  0.76271657  0.52854859  0.63332156    -0.76400
C404        C  0.73840103  0.53123289  0.65124786     0.84400
N405        N  0.71081459  0.53158920  0.63568428    -0.78100
C406        C  0.69246530  0.52116549  0.79454591     0.81900
N407        N  0.72066277  0.52208115  0.80970804    -0.76400
C408        C  0.74865152  0.52708200  0.79186048     0.84300
N409        N  0.74824235  0.53084058  0.75868483    -0.76400
C410        C  0.71992195  0.52994301  0.74338788     0.84400
N411        N  0.69212413  0.52509125  0.76149205    -0.78100
C412        C  0.42580230  0.18766014  0.79782507     0.81900
N413        N  0.42266168  0.21058127  0.81747071    -0.76400
C414        C  0.41755301  0.23620445  0.80403203     0.84300
N415        N  0.41587290  0.23906309  0.77087192    -0.76400
C416        C  0.41896122  0.21615419  0.75105616     0.84400
N417        N  0.42400377  0.19048788  0.76471181    -0.78100
C418        C  0.42660869  0.18401809  0.60559166     0.81900
N419        N  0.42367374  0.17921392  0.63864684    -0.76400
C420        C  0.42278907  0.20367114  0.65804536     0.84300
N421        N  0.42508744  0.23315915  0.64408610    -0.76400
C422        C  0.42811574  0.23797456  0.61100995     0.84400
N423        N  0.42890359  0.21342217  0.59185750    -0.78100
C424        C  0.47283009  0.58313250  0.51649419     0.44100
N425        N  0.47121576  0.53435857  0.50909891     0.03000
C426        C  0.51499918  0.47234408  0.87163591    -0.04900
H427        H  0.43706257  0.52778573  0.84830675     0.08500
C428        C  0.34268034  0.43302922  0.92343641    -0.05200
Co429      Co  0.50965943  0.52990698  0.94898291     0.74200
N430        N  0.46298400  0.52267792  0.89190892    -0.24400
Co431      Co  0.44652053  0.46924415  0.89650693     0.74100
C432        C  0.34344981  0.45069949  0.89271837     0.44200
N433        N  0.38312816  0.44528283  0.99950637     0.02600
N434        N  0.39423586  0.45663696  0.90131703     0.02700
N435        N  0.55541085  0.51229022  0.90660456    -0.45200
H436        H  0.51682480  0.60740049  0.97003134     0.08500
N437        N  0.48711147  0.54598033  0.91187374     0.03000
N438        N  0.43056216  0.41606683  0.90210891     0.02800
C439        C  0.42061813  0.36390890  0.89381302     0.44400
N440        N  0.40734597  0.46402444  0.51754282    -0.23900
C441        C  0.56413813  0.51901496  0.99026946    -0.04800
N442        N  0.46123003  0.55080962  0.52951974    -0.45000
N443        N  0.43637949  0.39679298  0.88119862    -0.45200
C444        C  0.56828496  0.51457643  0.51869013     0.44100
N445        N  0.52316754  0.50533552  0.91352913     0.03000
N446        N  0.45053829  0.43082713  0.51676125    -0.23900
N447        N  0.49454821  0.55285442  0.98460174    -0.24400
N448        N  0.41983243  0.40515199  0.99999884     0.02600
H449        H  0.47938047  0.42798603  0.55912998     0.08500
H450        H  0.38806249  0.34259665  0.94095446     0.08600
N451        N  0.49908681  0.48227314  0.89336592    -0.24400
N452        N  0.37538481  0.43820873  0.92678897    -0.24000
N453        N  0.51496725  0.50131635  0.50913841     0.03000
C454        C  0.47699676  0.57683895  0.87678891     0.44400
C455        C  0.38980520  0.47150883  0.53966507    -0.05300
N456        N  0.41153825  0.39761768  0.92747942    -0.24000
H457        H  0.32112150  0.41831624  0.94013247     0.08500
N458        N  0.49661654  0.57884750  0.90342564    -0.45300
H459        H  0.40144054  0.48963596  0.55982631     0.08500
C460        C  0.44330405  0.37837166  0.52935067     0.44200
C461        C  0.50151589  0.58612438  0.98704374    -0.04800
Co462      Co  0.46119689  0.48276081  0.51383562     0.73800
N463        N  0.35102160  0.43881222  0.00666894    -0.45000
C464        C  0.55210857  0.49199268  0.88085879     0.44500
N465        N  0.53536986  0.49677986  0.53068039    -0.45000
Co466      Co  0.39672467  0.42086234  0.96351104     0.73900
C467        C  0.40387791  0.36409853  0.92433027    -0.05300
C468        C  0.45489701  0.53976440  0.86885012    -0.04800
N469        N  0.53113884  0.51289199  0.98609857    -0.24400
N470        N  0.37593341  0.46444999  0.88007685    -0.45100
H471        H  0.50232702  0.45469050  0.85131480     0.08500
C472        C  0.46172185  0.41527384  0.53863348    -0.05300
Cl473      Cl  0.45319230  0.47541277  0.95621601    -0.48300
C474        C  0.35291411  0.44916507  0.53081490     0.44300
H475        H  0.58598090  0.53431034  0.97401887     0.08500
N476        N  0.41256755  0.37255444  0.00646815    -0.45000
C477        C  0.04329035  0.60907781  0.87769190     0.44100
N478        N  0.00098884  0.55697304  0.88607138     0.03000
C479        C  0.89150135  0.48087014  0.52831938    -0.04900
H480        H  0.02317103  0.52993259  0.55236604     0.08500
C481        C  0.03242165  0.45524205  0.97686190    -0.05200
Co482      Co  0.96207909  0.55224263  0.94710883     0.74200
N483        N  0.99368895  0.52566045  0.50796090    -0.24400
Co484      Co  0.95459616  0.47286815  0.50522208     0.74100
C485        C  0.03548869  0.44895904  0.51163372     0.44200
N486        N  0.00451726  0.46773329  0.89978053     0.02600
N487        N  0.99220288  0.45726209  0.50201711     0.02700
N488        N  0.89739549  0.53276253  0.98862330    -0.45200
H489        H  0.03155549  0.63004661  0.92427752     0.08500
N490        N  0.00090615  0.56848428  0.98376986     0.03000
N491        N  0.91526320  0.42027477  0.50172517     0.02800
C492        C  0.87178595  0.36926826  0.51271198     0.44400
N493        N  0.00337770  0.49059540  0.87902403    -0.23900
C494        C  0.89637872  0.54074177  0.90585792    -0.04800
N495        N  0.02658990  0.57634712  0.86528930    -0.45000
N496        N  0.89027796  0.40256107  0.52356970    -0.45200
C497        C  0.88003795  0.52340231  0.87505897     0.44100
N498        N  0.92398025  0.52743764  0.98292424     0.03000
N499        N  0.92662676  0.45033756  0.87936191    -0.23900
N500        N  0.00008351  0.57530888  0.91104735    -0.24400
N501        N  0.92768075  0.42745018  0.90016070     0.02600
H502        H  0.89174148  0.44469245  0.83884808     0.08500
H503        H  0.89858972  0.36473141  0.96149658     0.08600
N504        N  0.91722406  0.48890681  0.50670862    -0.24400
N505        N  0.00535233  0.46103214  0.97264718    -0.24000
N506        N  0.92413247  0.51641271  0.88535280     0.03000
C507        C  0.03550062  0.57926339  0.52183951     0.44400
C508        C  0.02904557  0.50025379  0.85691225    -0.05300
N509        N  0.92873776  0.42016089  0.97275408    -0.24000
H510        H  0.03901219  0.43993343  0.96096978     0.08500
N511        N  0.02563512  0.60124234  0.99041588    -0.45300
H512        H  0.03386227  0.51769620  0.83612852     0.08500
C513        C  0.88322001  0.39658405  0.86946388     0.44200
C514        C  0.02596203  0.60875980  0.90780724    -0.04800
Co515      Co  0.96383323  0.50369242  0.88168395     0.73800
N516        N  0.02974770  0.46068230  0.89285879    -0.45000
C517        C  0.87599550  0.50200729  0.51773924     0.44500
N518        N  0.89871598  0.50919697  0.86352359    -0.45000
Co519      Co  0.96662743  0.44347765  0.93619537     0.73900
C520        C  0.90370127  0.38642191  0.97722856    -0.05300
C521        C  0.01867410  0.54218986  0.53100684    -0.04800
N522        N  0.92347403  0.53493576  0.91025940    -0.24400
N523        N  0.01818430  0.46461102  0.52319349    -0.45100
H524        H  0.88539863  0.46347905  0.54935469     0.08500
C525        C  0.89925313  0.43309892  0.85875238    -0.05300
Cl526      Cl  0.96441077  0.49787314  0.94158776    -0.48300
C527        C  0.04654274  0.48062253  0.86643539     0.44300
H528        H  0.88962504  0.55591009  0.92176875     0.08500
N529        N  0.90215568  0.39478099  0.89496394    -0.45000
C530        C  0.50275728  0.90211526  0.88350481     0.44100
N531        N  0.49377795  0.94509846  0.89045863     0.03000
C532        C  0.51972063  0.03927653  0.52917495    -0.04900
H533        H  0.43122951  0.90748814  0.55118658     0.08500
C534        C  0.36559629  0.91714234  0.98046048    -0.05200
Co535      Co  0.53122202  0.98615751  0.95038238     0.74200
N536        N  0.45843436  0.93707052  0.50786492    -0.24400
Co537      Co  0.44767746  0.97815194  0.50410023     0.74100
C538        C  0.34133180  0.90082300  0.50484125     0.44200
N539        N  0.40179310  0.94304230  0.90279839     0.02600
N540        N  0.39392175  0.94287918  0.49844072     0.02700
N541        N  0.57913878  0.05159859  0.99112047    -0.45200
H542        H  0.53776110  0.91547117  0.92971628     0.08500
N543        N  0.51033233  0.94872504  0.98817643     0.03000
N544        N  0.43749567  0.01953271  0.49967552     0.02800
C545        C  0.43277129  0.06456579  0.50999523     0.44400
N546        N  0.42509317  0.94347761  0.88241077    -0.23900
C547        C  0.58347165  0.05037034  0.90740411    -0.04800
N548        N  0.48652340  0.91876535  0.87046057    -0.45000
N549        N  0.44553626  0.04427932  0.52176624    -0.45200
C550        C  0.58096177  0.06569574  0.87619681     0.44100
N551        N  0.54668782  0.02558772  0.98529025     0.03000
N552        N  0.46187734  0.02007413  0.88067894    -0.23900
N553        N  0.51412922  0.94673471  0.91547222    -0.24400
N554        N  0.43890703  0.01985679  0.90138611     0.02600
H555        H  0.48813295  0.05255214  0.83830206     0.08500
H556        H  0.41010920  0.05231911  0.96169831     0.08600
N557        N  0.50160919  0.01334497  0.50771470    -0.24400
N558        N  0.39814065  0.94442272  0.97600469    -0.24000
N559        N  0.53047569  0.02193352  0.88750744     0.03000
C560        C  0.46695753  0.89308527  0.52263144     0.44400
C561        C  0.40821508  0.91828758  0.85996629    -0.05300
N562        N  0.43437463  0.02112593  0.97415814    -0.24000
H563        H  0.34313200  0.90985138  0.96442195     0.08500
N564        N  0.51895688  0.92452069  0.99594646    -0.45300
H565        H  0.42017682  0.91361008  0.83908750     0.08500
C566        C  0.44993698  0.06236439  0.86835943     0.44200
C567        C  0.52127192  0.92053139  0.91309484    -0.04800
Co568      Co  0.47791119  0.98257091  0.88459611     0.73800
N569        N  0.36902321  0.91880859  0.89505585    -0.45000
C570        C  0.55626518  0.05371499  0.51980266     0.44500
N571        N  0.54758979  0.04673104  0.86511345    -0.45000
Co572      Co  0.41758498  0.98204389  0.93855854     0.73900
C573        C  0.42688015  0.04704078  0.97771785    -0.05300
C574        C  0.44817816  0.91145733  0.53064509    -0.04800
N575        N  0.55080180  0.02336594  0.91242918    -0.24400
N576        N  0.37387390  0.91631380  0.51829455    -0.45100
H577        H  0.50868085  0.04662360  0.54900709     0.08500
C578        C  0.47039616  0.04618744  0.85868788    -0.05300
Cl579      Cl  0.47435297  0.98400196  0.94440064    -0.48300
C580        C  0.37122087  0.90184499  0.86861544     0.44300
H581        H  0.60609514  0.05777125  0.92325340     0.08500
N582        N  0.43085271  0.04464689  0.89475485    -0.45000
C583        C  0.44130048  0.34936732  0.54802170    -0.16800
C584        C  0.43851682  0.32459721  0.56377308     0.07200
C585        C  0.43463343  0.29507309  0.58176303     0.09100
C586        C  0.43137677  0.26933413  0.59606140    -0.17700
C587        C  0.43156010  0.09139011  0.52874819    -0.16800
C588        C  0.43044740  0.11287608  0.54601483     0.07200
C589        C  0.42902837  0.13738713  0.56710025     0.09100
C590        C  0.42782296  0.15834994  0.58504256    -0.17700
C591        C  0.41845517  0.22050404  0.71496465    -0.14800
C592        C  0.42072004  0.19829893  0.69407183    -0.29900
H593        H  0.41692145  0.24297328  0.70543874     0.14200
H594        H  0.42173625  0.17556589  0.70364487     0.14800
C595        C  0.41561114  0.26129779  0.82486401    -0.16800
C596        C  0.41532191  0.28322719  0.84213570     0.07200
C597        C  0.41630095  0.31006606  0.86163110     0.09100
C598        C  0.41795561  0.33403362  0.87715719    -0.17700
C599        C  0.43204469  0.16105527  0.81203816    -0.16800
C600        C  0.43742601  0.13887570  0.82413111     0.07200
C601        C  0.44323072  0.11273979  0.83871555     0.09100
C602        C  0.44714356  0.09004116  0.85178131    -0.17700
C603        C  0.66232339  0.51445147  0.81325848    -0.16800
C604        C  0.63663795  0.50814773  0.82873242     0.07200
C605        C  0.60657501  0.50092921  0.84676889     0.09100
C606        C  0.58129363  0.49583911  0.86226613    -0.17700
C607        C  0.77804642  0.52719803  0.80821649    -0.16800
C608        C  0.80167715  0.52657516  0.82329903     0.07200
C609        C  0.82876971  0.52544261  0.84169054     0.09100
C610        C  0.85193141  0.52444428  0.85727177    -0.17700
C611        C  0.67834050  0.52867829  0.58569113    -0.16800
C612        C  0.65362971  0.52669485  0.57031891     0.07200
C613        C  0.62448206  0.52315696  0.55174111     0.09100
C614        C  0.59917059  0.51944167  0.53619405    -0.17700
C615        C  0.71789124  0.53237325  0.70726056    -0.14800
C616        C  0.74191904  0.53222984  0.68740518    -0.29600
H617        H  0.69507622  0.53261725  0.69675606     0.14200
H618        H  0.76443441  0.53143303  0.69795502     0.14800
C619        C  0.78492795  0.52227576  0.58168258    -0.16800
C620        C  0.80578589  0.51784282  0.56671099     0.07200
C621        C  0.82996321  0.51198923  0.54955511     0.09100
C622        C  0.85070292  0.50702526  0.53500061    -0.17700
C623        C  0.58671000  0.08134116  0.53567827    -0.16800
C624        C  0.61208396  0.10453352  0.54929223     0.07200
C625        C  0.64128255  0.13174695  0.56571320     0.09100
C626        C  0.66555909  0.15505371  0.58039625    -0.17700
C627        C  0.84471757  0.34055587  0.53130478    -0.16800
C628        C  0.82259101  0.31720768  0.54801305     0.07200
C629        C  0.79678046  0.29003573  0.56784890     0.09100
C630        C  0.77423056  0.26635641  0.58395053    -0.17700
C631        C  0.60886380  0.09398942  0.85814532    -0.16800
C632        C  0.63146615  0.11747261  0.84203329     0.07200
C633        C  0.65753809  0.14508605  0.82294046     0.09100
C634        C  0.68003586  0.16926482  0.80736047    -0.17700
C635        C  0.71575811  0.20543798  0.68617161    -0.14800
C636        C  0.73930054  0.23074950  0.70586092    -0.29900
H637        H  0.69352657  0.18225588  0.69681641     0.14200
H638        H  0.76137848  0.25408297  0.69524206     0.14800
C639        C  0.85419954  0.36666377  0.85455417    -0.16800
C640        C  0.83063097  0.34098942  0.84182034     0.07200
C641        C  0.80414612  0.31080411  0.82615796     0.09100
C642        C  0.78239114  0.28530278  0.81171713    -0.17700
C643        C  0.31423429  0.45010753  0.87592305    -0.16800
C644        C  0.29021411  0.44933262  0.86052665     0.07200
C645        C  0.26301855  0.44849675  0.84099995     0.09100
C646        C  0.24076669  0.44826135  0.82314777    -0.17700
C647        C  0.07231583  0.47710757  0.84800910    -0.16800
C648        C  0.09330642  0.47284430  0.83286497     0.07200
C649        C  0.11780863  0.46690811  0.81603271     0.09100
C650        C  0.13932334  0.46161335  0.80317767    -0.17700
C651        C  0.20027674  0.44472448  0.71100747    -0.14800
C652        C  0.17860250  0.44597024  0.68807581    -0.29900
H653        H  0.22247239  0.44200289  0.70360529     0.14200
H654        H  0.15628033  0.44843931  0.69555863     0.14800
C655        C  0.24554161  0.44202154  0.59393102    -0.16800
C656        C  0.27005380  0.44235794  0.58045585     0.07200
C657        C  0.29847222  0.44369153  0.56316851     0.09100
C658        C  0.32293216  0.44567575  0.54812841    -0.17700
C659        C  0.06450065  0.44861868  0.52803306    -0.16800
C660        C  0.08836553  0.44787691  0.54236645     0.07200
C661        C  0.11557307  0.44666773  0.56021084     0.09100
C662        C  0.13800429  0.44557940  0.57680350    -0.17700
C663        C  0.06067932  0.60868340  0.54120808    -0.16800
C664        C  0.08169921  0.63307833  0.55775431     0.07200
C665        C  0.10707842  0.66211493  0.57629164     0.09100
C666        C  0.13010857  0.68786729  0.58992466    -0.17700
C667        C  0.23492591  0.79818073  0.56590809    -0.16800
C668        C  0.25751043  0.82013642  0.54876673     0.07200
C669        C  0.28586700  0.84724688  0.53157507     0.09100
C670        C  0.31103924  0.87136796  0.51877669    -0.17700
C671        C  0.14839708  0.71305530  0.81617582    -0.16800
C672        C  0.12513972  0.69101680  0.83269173     0.07200
C673        C  0.09696305  0.66335964  0.84958311     0.09100
C674        C  0.07251834  0.63876201  0.86271729    -0.17700
C675        C  0.18374704  0.74528098  0.70377136    -0.14800
C676        C  0.20438862  0.76575213  0.67950667    -0.29900
H677        H  0.15909058  0.72171730  0.69768637     0.14200
H678        H  0.22879897  0.78963124  0.68547699     0.14800
C679        C  0.26314952  0.81319132  0.79567680    -0.16800
C680        C  0.28888715  0.83462132  0.81067061     0.07200
C681        C  0.31754606  0.85818512  0.83083176     0.09100
C682        C  0.34169188  0.87787270  0.84849784    -0.17700
C683        C  0.49622385  0.68693937  0.80629186    -0.16800
C684        C  0.49224592  0.66101960  0.82095172     0.07200
C685        C  0.48696698  0.63145917  0.84002652     0.09100
C686        C  0.48231448  0.60656508  0.85687877    -0.17700
C687        C  0.50768595  0.80115384  0.82110167    -0.16800
C688        C  0.50755393  0.82373481  0.83737531     0.07200
C689        C  0.50604403  0.85050192  0.85465017     0.09100
C690        C  0.50436193  0.87377170  0.86822071    -0.17700
C691        C  0.47296469  0.68650045  0.57862208    -0.16800
C692        C  0.47038730  0.66262112  0.56245693     0.07200
C693        C  0.46918775  0.63444549  0.54533231     0.09100
C694        C  0.46994012  0.61067359  0.53182717    -0.17700
C695        C  0.47869605  0.79804064  0.59402266    -0.16800
C696        C  0.47625100  0.82092296  0.57936430     0.07200
C697        C  0.47285471  0.84623637  0.56001264     0.09100
C698        C  0.46996647  0.86740385  0.54282836    -0.17700
C699        C  0.49714654  0.75784139  0.71064499    -0.14800
C700        C  0.49249837  0.73372454  0.68834806    -0.29900
H701        H  0.49791659  0.78195799  0.70264713     0.14200
H702        H  0.49185437  0.70966160  0.69632588     0.14800
loop_ 
_geom_bond_atom_site_label_1 
_geom_bond_atom_site_label_2 
_geom_bond_distance 
_geom_bond_site_symmetry_2 
_ccdc_geom_bond_type 
C1            N2   1.353       .  A
C1            N6   1.353       .  A
C1          C340   1.426       .  S
N2            C3   1.355       .  A
C3            N4   1.363       .  A
C3          C349   1.474       .  S
N4            C5   1.360       .  A
C5            N6   1.355       .  A
C5          C344   1.434       .  S
C7            N8   1.359       .  A
C7           N12   1.355       .  A
C7          C332   1.435       .  S
N8            C9   1.363       .  A
C9           N10   1.356       .  A
C9          C348   1.475       .  S
N10          C11   1.354       .  A
C11          N12   1.354       .  A
C11         C336   1.428       .  S
C13          N14   1.355       .  A
C13          N18   1.359       .  A
C13         C328   1.437       .  S
N14          C15   1.355       .  A
C15          N16   1.355       .  A
C15         C320   1.430       .  S
N16          C17   1.357       .  A
C17          N18   1.362       .  A
C17         C324   1.477       .  S
C19          N20   1.355       .  A
C19          N24   1.355       .  A
C19         C316   1.431       .  S
N20          C21   1.357       .  A
C21          N22   1.363       .  A
C21         C325   1.476       .  S
N22          C23   1.359       .  A
C23          N24   1.356       .  A
C23         C315   1.436       .  S
C25          N26   1.355       .  A
C25          N30   1.355       .  A
C25         C311   1.432       .  S
N26          C27   1.356       .  A
C27          N28   1.360       .  A
C27         C304   1.439       .  S
N28          C29   1.363       .  A
C29          N30   1.357       .  A
C29         C301   1.478       .  S
C31          N32   1.356       .  A
C31          N36   1.360       .  A
C31         C299   1.437       .  S
N32          C33   1.355       .  A
C33          N34   1.355       .  A
C33         C295   1.432       .  S
N34          C35   1.357       .  A
C35          N36   1.363       .  A
C35         C300   1.478       .  S
C37          N38   1.356       .  A
C37          N42   1.358       .  A
C37         C291   1.439       .  S
N38          C39   1.356       .  A
C39          N40   1.359       .  A
C39         C283   1.440       .  S
N40          C41   1.361       .  A
C41          N42   1.362       .  A
C41         C285   1.482       .  S
C43          N44   1.356       .  A
C43          N48   1.358       .  A
C43         C279   1.437       .  S
N44          C45   1.356       .  A
C45          N46   1.359       .  A
C45         C275   1.437       .  S
N46          C47   1.362       .  A
C47          N48   1.360       .  A
C47         C284   1.481       .  S
C49          N50   1.354       .  A
C49          N54   1.358       .  A
C49         C260   1.432       .  S
N50          C51   1.353       .  A
C51          N52   1.355       .  A
C51         C268   1.428       .  S
N52          C53   1.357       .  A
C53          N54   1.362       .  A
C53         C265   1.476       .  S
C55          N56   1.356       .  A
C55          N60   1.355       .  A
C55         C252   1.433       .  S
N56          C57   1.356       .  A
C57          N58   1.358       .  A
C57         C256   1.436       .  S
N58          C59   1.362       .  A
C59          N60   1.357       .  A
C59         C264   1.475       .  S
C61          N62   1.354       .  A
C61          N66   1.354       .  A
C61         C248   1.428       .  S
N62          C63   1.354       .  A
C63          N64   1.358       .  A
C63         C244   1.432       .  S
N64          C65   1.359       .  A
C65          N66   1.359       .  A
C65         C240   1.474       .  S
C67          N68   1.358       .  A
C67          N72   1.355       .  A
C67         C239   1.433       .  S
N68          C69   1.359       .  A
C69          N70   1.358       .  A
C69         C241   1.474       .  S
N70          C71   1.354       .  A
C71          N72   1.354       .  A
C71         C235   1.429       .  S
C73          N91   1.345       .  A
C73         C343   1.426       .  S
C73         C461   1.451   1_554  S
N74          N91   1.323       .  A
N74         N447   1.321   1_554  A
N74        Co111   2.078       .  S
C75         N100   1.340       .  A
C75         C113   1.453       .  S
C75         H120   1.081       .  S
H76         C117   1.082       .  S
C77         N101   1.340       .  A
C77          C81   1.453       .  S
C77         H106   1.082       .  S
Co78         N96   2.079       .  S
Co78         N86   2.089       .  S
Co78        N118   2.089       .  S
Co78         N94   2.082       .  S
Co78       Cl122   2.455       .  S
N79         C117   1.341       .  A
N79          N86   1.320       .  A
N79         Co80   2.078       .  S
Co80         N83   2.085       .  S
Co80        N100   2.084       .  S
Co80         N87   2.074       .  S
Co80       Cl122   2.448       .  S
C81         N119   1.347       .  A
C81         C292   1.432       .  S
N82         N112   1.327       .  A
N82         N440   1.321       .  A
N82        Co115   2.092       .  S
N83         N101   1.321       .  A
N83         N119   1.324       .  A
N84         C113   1.347       .  A
N84          N94   1.325       .  A
H85         C110   1.081       .  S
N86         N107   1.325       .  A
N87         N105   1.321       .  A
N87          N92   1.322       .  A
C88          N92   1.344       .  A
C88         C247   1.432       .  S
C88         C116   1.457       .  S
N89         C104   1.341       .  A
N89         N433   1.320   1_554  A
N89        Co111   2.081       .  S
C90         N118   1.343       .  A
C90         C444   1.457       .  S
C90         H124   1.082       .  S
C93         N114   1.345       .  A
C93         C263   1.433       .  S
C93         C441   1.455   1_554  S
N94         N100   1.321       .  A
N95         C121   1.340       .  A
N95         N448   1.321   1_554  A
N95        Co111   2.079       .  S
N96         C110   1.340       .  A
N96         N425   1.321       .  A
N97         N125   1.325       .  A
N97         N446   1.321       .  A
N97        Co115   2.085       .  S
H98         C121   1.081       .  S
H99         C116   1.081       .  S
N101       Co115   2.081       .  S
N102        N114   1.324       .  A
N102        N469   1.320   1_554  A
N102       Co111   2.077       .  S
C103        N107   1.348       .  A
C103        C335   1.436       .  S
C103        C117   1.454       .  S
C104        C123   1.454       .  S
C104        H108   1.082       .  S
N105        C116   1.343       .  A
N105       Co115   2.087       .  S
C109        N476   1.346       .  A
C109        C232   1.429       .  S
C109        C121   1.453       .  S
C110        C424   1.452       .  S
Co111      Cl473   2.449   1_554  S
N112        C474   1.350       .  A
C113        C255   1.433       .  S
Co115      Cl122   2.455       .  S
N118        N453   1.321       .  A
Cl122      Co462   2.449       .  S
C123        N463   1.350       .  A
C123        C307   1.439       .  S
N125        C460   1.348       .  A
C126        N144   1.346       .  A
C126        C323   1.429       .  S
C126        C163   1.453       .  S
N127        N144   1.324   1_655  A
N127        N149   1.321       .  A
N127       Co164   2.082       .  S
C128        N153   1.339       .  A
C128        C166   1.452       .  S
C128        H173   1.081       .  S
H129        C170   1.081       .  S
C130        N154   1.341   1_455  A
C130        C485   1.453       .  S
C130        H159   1.081       .  S
Co131       N149   2.077       .  S
Co131       N139   2.096       .  S
Co131       N171   2.093       .  S
Co131       N147   2.078       .  S
Co131      Cl175   2.456       .  S
N132        C170   1.339       .  A
N132        N490   1.320   1_554  A
N132       Co133   2.077   1_455  S
Co133       N136   2.082   1_654  S
Co133       N153   2.078       .  S
Co133       N140   2.080   1_554  S
Co133      Cl526   2.448   1_554  S
C134        N172   1.346       .  A
C134        C308   1.432       .  S
C134        C481   1.454   1_554  S
N135        N142   1.320       .  A
N135        N165   1.327   1_655  A
N135       Co168   2.094       .  S
N136        N172   1.324   1_556  A
N136        N505   1.321       .  A
N137        C517   1.346       .  A
N137        N147   1.323       .  A
H138        C163   1.082       .  S
N139        N160   1.328   1_655  A
N139        N483   1.320       .  A
N140        N145   1.324   1_556  A
N140        N509   1.320       .  A
C141        N145   1.347       .  A
C141        C276   1.437       .  S
C141        C520   1.457   1_554  S
N142        C157   1.340   1_655  A
N142       Co164   2.077       .  S
C143        N171   1.343       .  A
C143        C146   1.457       .  S
C143        H177   1.081       .  S
C146        N167   1.346       .  A
C146        C259   1.437       .  S
N147        N504   1.321       .  A
N148        C174   1.341       .  A
N148        N150   1.321       .  A
N148       Co164   2.086       .  S
N149        C163   1.340   1_655  A
N150        N178   1.326       .  A
N150       Co168   2.090       .  S
H151        C174   1.082       .  S
H152        C169   1.082       .  S
N153        N498   1.321   1_554  A
N154        N487   1.322       .  A
N154       Co168   2.083       .  S
N155        N167   1.324       .  A
N155        N171   1.321       .  A
N155       Co164   2.078       .  S
C156        N511   1.349   1_554  A
C156        C312   1.436       .  S
C156        C170   1.452       .  S
C157        C176   1.452       .  S
C157        H161   1.082       .  S
N158        C169   1.344       .  A
N158        N491   1.321       .  A
N158       Co168   2.093       .  S
N160        C507   1.351       .  A
C162        N178   1.349       .  A
C162        C288   1.439       .  S
C162        C174   1.455       .  S
Co164      Cl175   2.449       .  S
N165        C176   1.350       .  A
C166        N488   1.346   1_554  A
C166        C271   1.428       .  S
Co168      Cl175   2.456       .  S
C169        C492   1.459       .  S
Cl175      Co484   2.449       .  S
C176        C296   1.438       .  S
C179        N197   1.346       .  A
C179        C339   1.428       .  S
C179        C216   1.452       .  S
N180        N197   1.324       .  A
N180        N202   1.321       .  A
N180       Co217   2.080       .  S
C181        N206   1.341       .  A
C181        C219   1.455       .  S
C181        H226   1.082       .  S
H182        C223   1.082       .  S
C183        N207   1.339       .  A
C183        C538   1.450       .  S
C183        H212   1.081       .  S
Co184       N202   2.077       .  S
Co184       N192   2.094       .  S
Co184       N224   2.095   1_565  S
Co184       N200   2.080   1_565  S
Co184      Cl228   2.454       .  S
N185        C223   1.339       .  A
N185        N543   1.320   1_554  A
N185       Co186   2.074       .  S
Co186       N189   2.084       .  S
Co186       N206   2.085   1_565  S
Co186       N193   2.071   1_564  S
Co186      Cl579   2.448   1_554  S
C187        N225   1.346       .  A
C187        C319   1.431       .  S
C187        C534   1.453   1_554  S
N188        N195   1.320       .  A
N188        N218   1.326       .  A
N188       Co221   2.090       .  S
N189        N225   1.324       .  A
N189        N558   1.322   1_554  A
N190        C570   1.346       .  A
N190        N200   1.324       .  A
H191        C216   1.081       .  S
N192        N213   1.327       .  A
N192        N536   1.320       .  A
N193        N198   1.323   1_556  A
N193        N562   1.320       .  A
C194        N198   1.344       .  A
C194        C236   1.433       .  S
C194        C573   1.457   1_554  S
N195        C210   1.341       .  A
N195       Co217   2.079       .  S
C196        N224   1.345       .  A
C196        C199   1.460       .  S
C196        H230   1.081       .  S
C199        N220   1.345       .  A
C199        C280   1.439       .  S
N200        N557   1.321       .  A
N201        C227   1.339       .  A
N201        N203   1.321       .  A
N201       Co217   2.078   1_545  S
N202        C216   1.339       .  A
N203        N231   1.324       .  A
N203       Co221   2.081   1_545  S
H204        C227   1.081       .  S
H205        C222   1.082       .  S
N206        N551   1.321   1_554  A
N207        N540   1.321       .  A
N207       Co221   2.074       .  S
N208        N220   1.324       .  A
N208        N224   1.320       .  A
N208       Co217   2.078   1_545  S
C209        N564   1.349   1_554  A
C209        C347   1.434       .  S
C209        C223   1.451       .  S
C210        C229   1.453       .  S
C210        H214   1.081       .  S
N211        C222   1.344       .  A
N211        N544   1.320       .  A
N211       Co221   2.090   1_545  S
N213        C560   1.350       .  A
C215        N231   1.347       .  A
C215        C251   1.428       .  S
C215        C227   1.451       .  S
Co217      Cl228   2.448       .  S
N218        C229   1.349       .  A
C219        N541   1.348   1_554  A
C219        C272   1.437       .  S
Co221      Cl228   2.455       .  S
C222        C545   1.458       .  S
Cl228      Co537   2.447       .  S
C229        C331   1.437       .  S
C232        C233   1.202       .  T
C233        C234   1.406       .  S
C234        C235   1.202       .  T
C236        C237   1.204       .  T
C237        C238   1.409       .  S
C238        C239   1.204       .  T
C240        C241   1.346       .  D
C240        H242   1.086       .  S
C241        H243   1.086       .  S
C244        C245   1.203       .  T
C245        C246   1.408       .  S
C246        C247   1.203       .  T
C248        C249   1.201       .  T
C249        C250   1.404       .  S
C250        C251   1.201       .  T
C252        C253   1.204       .  T
C253        C254   1.410       .  S
C254        C255   1.204       .  T
C256        C257   1.206       .  T
C257        C258   1.413       .  S
C258        C259   1.206       .  T
C260        C261   1.204       .  T
C261        C262   1.409       .  S
C262        C263   1.204       .  T
C264        C265   1.342       .  D
C264        H266   1.087       .  S
C265        H267   1.086       .  S
C268        C269   1.201       .  T
C269        C270   1.405       .  S
C270        C271   1.201       .  T
C272        C273   1.206       .  T
C273        C274   1.414       .  S
C274        C275   1.207       .  T
C276        C277   1.206       .  T
C277        C278   1.413       .  S
C278        C279   1.207       .  T
C280        C281   1.208       .  T
C281        C282   1.416       .  S
C282        C283   1.208       .  T
C284        C285   1.347       .  D
C284        H286   1.086       .  S
C285        H287   1.086       .  S
C288        C289   1.207       .  T
C289        C290   1.415       .  S
C290        C291   1.207       .  T
C292        C293   1.203       .  T
C293        C294   1.408       .  S
C294        C295   1.203       .  T
C296        C297   1.207       .  T
C297        C298   1.414       .  S
C298        C299   1.207       .  T
C300        C301   1.342       .  D
C300        H302   1.087       .  S
C301        H303   1.087       .  S
C304        C305   1.208       .  T
C305        C306   1.415       .  S
C306        C307   1.208       .  T
C308        C309   1.203       .  T
C309        C310   1.409       .  S
C310        C311   1.204       .  T
C312        C313   1.206       .  T
C313        C314   1.413       .  S
C314        C315   1.206       .  T
C316        C317   1.203       .  T
C317        C318   1.408       .  S
C318        C319   1.203       .  T
C320        C321   1.202       .  T
C321        C322   1.406       .  S
C322        C323   1.202       .  T
C324        C325   1.342       .  D
C324        H326   1.087       .  S
C325        H327   1.087       .  S
C328        C329   1.206       .  T
C329        C330   1.413       .  S
C330        C331   1.206       .  T
C332        C333   1.206       .  T
C333        C334   1.412       .  S
C334        C335   1.206       .  T
C336        C337   1.201       .  T
C337        C338   1.404       .  S
C338        C339   1.201       .  T
C340        C341   1.200       .  T
C341        C342   1.403       .  S
C342        C343   1.200       .  T
C344        C345   1.205       .  T
C345        C346   1.411       .  S
C346        C347   1.205       .  T
C348        C349   1.340       .  D
C348        H350   1.087       .  S
C349        H351   1.087       .  S
C352        N353   1.354       .  A
C352        N357   1.354       .  A
C352        C691   1.431       .  S
N353        C354   1.356       .  A
C354        N355   1.366       .  A
C354        C700   1.480       .  S
N355        C356   1.363       .  A
C356        N357   1.357       .  A
C356        C695   1.441       .  S
C358        N359   1.363       .  A
C358        N363   1.357       .  A
C358        C683   1.442       .  S
N359        C360   1.365       .  A
C360        N361   1.356       .  A
C360        C699   1.480       .  S
N361        C362   1.354       .  A
C362        N363   1.355       .  A
C362        C687   1.433       .  S
C364        N365   1.356       .  A
C364        N369   1.366       .  A
C364        C679   1.443       .  S
N365        C366   1.353       .  A
C366        N367   1.351       .  A
C366        C671   1.428       .  S
N367        C368   1.354       .  A
C368        N369   1.368       .  A
C368        C675   1.480       .  S
C370        N371   1.353       .  A
C370        N375   1.354       .  A
C370        C667   1.428       .  S
N371        C372   1.354       .  A
C372        N373   1.367       .  A
C372        C676   1.482       .  S
N373        C374   1.364       .  A
C374        N375   1.356       .  A
C374        C666   1.444       .  S
C376        N377   1.356       .  A
C376        N381   1.354       .  A
C376        C662   1.433       .  S
N377        C378   1.358       .  A
C378        N379   1.362       .  A
C378        C655   1.441       .  S
N379        C380   1.364       .  A
C380        N381   1.356       .  A
C380        C652   1.479       .  S
C382        N383   1.356       .  A
C382        N387   1.361       .  A
C382        C650   1.439       .  S
N383        C384   1.355       .  A
C384        N385   1.355       .  A
C384        C646   1.431       .  S
N385        C386   1.357       .  A
C386        N387   1.364       .  A
C386        C651   1.480       .  S
C388        N389   1.354       .  A
C388        N393   1.354       .  A
C388        C642   1.429       .  S
N389        C390   1.355       .  A
C390        N391   1.359       .  A
C390        C634   1.435       .  S
N391        C392   1.363       .  A
C392        N393   1.356       .  A
C392        C636   1.477       .  S
C394        N395   1.356       .  A
C394        N399   1.361       .  A
C394        C630   1.439       .  S
N395        C396   1.355       .  A
C396        N397   1.354       .  A
C396        C626   1.431       .  S
N397        C398   1.356       .  A
C398        N399   1.364       .  A
C398        C635   1.477       .  S
C400        N401   1.356       .  A
C400        N405   1.360       .  A
C400        C611   1.439       .  S
N401        C402   1.355       .  A
C402        N403   1.354       .  A
C402        C619   1.432       .  S
N403        C404   1.356       .  A
C404        N405   1.363       .  A
C404        C616   1.477       .  S
C406        N407   1.356       .  A
C406        N411   1.355       .  A
C406        C603   1.433       .  S
N407        C408   1.356       .  A
C408        N409   1.360       .  A
C408        C607   1.439       .  S
N409        C410   1.363       .  A
C410        N411   1.357       .  A
C410        C615   1.478       .  S
C412        N413   1.357       .  A
C412        N417   1.357       .  A
C412        C599   1.437       .  S
N413        C414   1.357       .  A
C414        N415   1.359       .  A
C414        C595   1.438       .  S
N415        C416   1.360       .  A
C416        N417   1.361       .  A
C416        C591   1.481       .  S
C418        N419   1.358       .  A
C418        N423   1.355       .  A
C418        C590   1.438       .  S
N419        C420   1.360       .  A
C420        N421   1.362       .  A
C420        C592   1.479       .  S
N421        C422   1.359       .  A
C422        N423   1.356       .  A
C422        C586   1.436       .  S
C424        N442   1.347       .  A
C424        C694   1.432       .  S
N425        N442   1.325       .  A
N425       Co462   2.086       .  S
C426        N451   1.341       .  A
C426        C464   1.456       .  S
C426        H471   1.082       .  S
H427        C468   1.082       .  S
C428        N452   1.340       .  A
C428        C432   1.453       .  S
C428        H457   1.082       .  S
Co429       N447   2.076       .  S
Co429       N437   2.091       .  S
Co429       N469   2.085       .  S
Co429       N445   2.079       .  S
Co429      Cl473   2.453       .  S
N430        C468   1.342       .  A
N430        N437   1.320       .  A
N430       Co431   2.086       .  S
Co431       N434   2.085       .  S
Co431       N451   2.085       .  S
Co431       N438   2.084       .  S
Co431      Cl473   2.448       .  S
C432        N470   1.347       .  A
C432        C643   1.431       .  S
N433        N463   1.327   1_556  A
N433       Co466   2.092       .  S
N434        N452   1.321       .  A
N434        N470   1.324       .  A
N435        C464   1.346       .  A
N435        N445   1.323       .  A
H436        C461   1.081       .  S
N437        N458   1.326       .  A
N438        N456   1.321       .  A
N438        N443   1.324       .  A
C439        N443   1.347       .  A
C439        C598   1.438       .  S
C439        C467   1.457       .  S
N440        C455   1.341       .  A
N440       Co462   2.084       .  S
C441        N469   1.342       .  A
C441        H475   1.082       .  S
C444        N465   1.347       .  A
C444        C614   1.439       .  S
N445        N451   1.320       .  A
N446        C472   1.342       .  A
N446       Co462   2.087       .  S
N447        C461   1.339       .  A
N448        N476   1.324   1_556  A
N448       Co466   2.080       .  S
H449        C472   1.082       .  S
H450        C467   1.082       .  S
N452       Co466   2.078       .  S
N453        N465   1.325       .  A
N453       Co462   2.086       .  S
C454        N458   1.349       .  A
C454        C686   1.442       .  S
C454        C468   1.456       .  S
C455        C474   1.454       .  S
C455        H459   1.081       .  S
N456        C467   1.343       .  A
N456       Co466   2.089       .  S
C460        C583   1.437       .  S
C460        C472   1.456       .  S
C464        C606   1.433       .  S
Co466      Cl473   2.454       .  S
C474        C658   1.441       .  S
C477        N495   1.347       .  A
C477        C674   1.429       .  S
C477        C514   1.450       .  S
N478        N495   1.324       .  A
N478        N500   1.321       .  A
N478       Co515   2.085   1_455  S
C479        N504   1.341       .  A
C479        C517   1.455       .  S
C479        H524   1.082       .  S
H480        C521   1.082       .  S
C481        N505   1.341       .  A
C481        H510   1.082       .  S
Co482       N500   2.075   1_655  S
Co482       N490   2.091   1_655  S
Co482       N522   2.089       .  S
Co482       N498   2.077       .  S
Co482      Cl526   2.453       .  S
N483        C521   1.342   1_655  A
N483       Co484   2.085       .  S
Co484       N487   2.085       .  S
Co484       N504   2.085       .  S
Co484       N491   2.084       .  S
C485        N523   1.347       .  A
C485        C659   1.434       .  S
N486        N493   1.321       .  A
N486        N516   1.325       .  A
N486       Co519   2.087   1_455  S
N487        N523   1.325   1_655  A
N488        N498   1.324       .  A
H489        C514   1.082       .  S
N490        N511   1.327       .  A
N491        N496   1.325       .  A
C492        N496   1.346       .  A
C492        C627   1.440       .  S
N493        C508   1.343       .  A
N493       Co515   2.087   1_455  S
C494        N522   1.343       .  A
C494        C497   1.457       .  S
C494        H528   1.082       .  S
C497        N518   1.347       .  A
C497        C610   1.439       .  S
N499        C525   1.341       .  A
N499        N501   1.321       .  A
N499       Co515   2.082       .  S
N500        C514   1.339       .  A
N501        N529   1.323       .  A
N501       Co519   2.077       .  S
H502        C525   1.081       .  S
H503        C520   1.081       .  S
N505       Co519   2.080   1_455  S
N506        N518   1.325       .  A
N506        N522   1.321       .  A
N506       Co515   2.086       .  S
C507        C663   1.445       .  S
C507        C521   1.456       .  S
C508        C527   1.457       .  S
C508        H512   1.082       .  S
N509        C520   1.343       .  A
N509       Co519   2.088       .  S
C513        N529   1.345       .  A
C513        C639   1.429       .  S
C513        C525   1.453       .  S
Co515      Cl526   2.450       .  S
N516        C527   1.348       .  A
C517        C622   1.432       .  S
Co519      Cl526   2.451       .  S
C527        C647   1.440       .  S
C530        N548   1.348       .  A
C530        C690   1.434       .  S
C530        C567   1.452       .  S
N531        N548   1.325       .  A
N531        N553   1.322       .  A
N531       Co568   2.091       .  S
C532        N557   1.340       .  A
C532        C570   1.454       .  S
C532        H577   1.081       .  S
H533        C574   1.082       .  S
C534        N558   1.340       .  A
C534        H563   1.082       .  S
Co535       N553   2.080       .  S
Co535       N543   2.089       .  S
Co535       N575   2.086   1_565  S
Co535       N551   2.087   1_565  S
Co535      Cl579   2.456       .  S
N536        C574   1.342       .  A
N536       Co537   2.083       .  S
Co537       N540   2.086       .  S
Co537       N557   2.084   1_565  S
Co537       N544   2.081   1_565  S
C538        N576   1.347       .  A
C538        C670   1.429       .  S
N539        N546   1.320       .  A
N539        N569   1.328       .  A
N539       Co572   2.097       .  S
N540        N576   1.324       .  A
N541        N551   1.326       .  A
H542        C567   1.082       .  S
N543        N564   1.326       .  A
N544        N549   1.324       .  A
C545        N549   1.346       .  A
C545        C587   1.438       .  S
N546        C561   1.341       .  A
N546       Co568   2.083       .  S
C547        N575   1.342       .  A
C547        C550   1.456       .  S
C547        H581   1.082       .  S
C550        N571   1.345       .  A
C550        C631   1.435       .  S
N552        C578   1.343       .  A
N552        N554   1.321       .  A
N552       Co568   2.092   1_545  S
N553        C567   1.340       .  A
N554        N582   1.324       .  A
N554       Co572   2.081   1_545  S
H555        C578   1.081       .  S
H556        C573   1.081       .  S
N558       Co572   2.081       .  S
N559        N571   1.324       .  A
N559        N575   1.321       .  A
N559       Co568   2.080   1_545  S
C560        C698   1.442       .  S
C560        C574   1.455       .  S
C561        C580   1.455       .  S
C561        H565   1.082       .  S
N562        C573   1.343       .  A
N562       Co572   2.091   1_545  S
C566        N582   1.346       .  A
C566        C602   1.437       .  S
C566        C578   1.457       .  S
Co568      Cl579   2.448       .  S
N569        C580   1.351       .  A
C570        C623   1.431       .  S
Co572      Cl579   2.456       .  S
C580        C682   1.444       .  S
C583        C584   1.206       .  T
C584        C585   1.413       .  S
C585        C586   1.206       .  T
C587        C588   1.207       .  T
C588        C589   1.414       .  S
C589        C590   1.207       .  T
C591        C592   1.346       .  D
C591        H593   1.086       .  S
C592        H594   1.086       .  S
C595        C596   1.207       .  T
C596        C597   1.414       .  S
C597        C598   1.207       .  T
C599        C600   1.207       .  T
C600        C601   1.413       .  S
C601        C602   1.206       .  T
C603        C604   1.204       .  T
C604        C605   1.409       .  S
C605        C606   1.204       .  T
C607        C608   1.208       .  T
C608        C609   1.415       .  S
C609        C610   1.208       .  T
C611        C612   1.208       .  T
C612        C613   1.415       .  S
C613        C614   1.208       .  T
C615        C616   1.342       .  D
C615        H617   1.087       .  S
C616        H618   1.087       .  S
C619        C620   1.203       .  T
C620        C621   1.408       .  S
C621        C622   1.203       .  T
C623        C624   1.203       .  T
C624        C625   1.408       .  S
C625        C626   1.203       .  T
C627        C628   1.208       .  T
C628        C629   1.416       .  S
C629        C630   1.208       .  T
C631        C632   1.205       .  T
C632        C633   1.412       .  S
C633        C634   1.206       .  T
C635        C636   1.341       .  D
C635        H637   1.087       .  S
C636        H638   1.087       .  S
C639        C640   1.201       .  T
C640        C641   1.405       .  S
C641        C642   1.202       .  T
C643        C644   1.203       .  T
C644        C645   1.408       .  S
C645        C646   1.203       .  T
C647        C648   1.208       .  T
C648        C649   1.416       .  S
C649        C650   1.208       .  T
C651        C652   1.341       .  D
C651        H653   1.087       .  S
C652        H654   1.087       .  S
C655        C656   1.209       .  T
C656        C657   1.417       .  S
C657        C658   1.209       .  T
C659        C660   1.204       .  T
C660        C661   1.410       .  S
C661        C662   1.204       .  T
C663        C664   1.211       .  T
C664        C665   1.421       .  S
C665        C666   1.211       .  T
C667        C668   1.201       .  T
C668        C669   1.405       .  S
C669        C670   1.201       .  T
C671        C672   1.201       .  T
C672        C673   1.405       .  S
C673        C674   1.201       .  T
C675        C676   1.338       .  D
C675        H677   1.087       .  S
C676        H678   1.087       .  S
C679        C680   1.211       .  T
C680        C681   1.420       .  S
C681        C682   1.211       .  T
C683        C684   1.210       .  T
C684        C685   1.418       .  S
C685        C686   1.210       .  T
C687        C688   1.204       .  T
C688        C689   1.410       .  S
C689        C690   1.204       .  T
C691        C692   1.203       .  T
C692        C693   1.408       .  S
C693        C694   1.203       .  T
C695        C696   1.209       .  T
C696        C697   1.418       .  S
C697        C698   1.209       .  T
C699        C700   1.341       .  D
C699        H701   1.087       .  S
C700        H702   1.087       .  S
