geometry optimzed in LAMMPS
_audit_creation_date              2020-11-30 
_audit_creation_method            'lammps2cif' 
_symmetry_space_group_name_H-M    'P1' 
_symmetry_Int_Tables_number       1 
_symmetry_cell_setting            triclinic 
loop_ 
_symmetry_equiv_pos_as_xyz 
  x,y,z 
_cell_length_a                    43.19472297694278 
_cell_length_b                    43.19949025780097 
_cell_length_c                    43.21755407580889 
_cell_angle_alpha                 90.03606561653801 
_cell_angle_beta                  90.01919531055323 
_cell_angle_gamma                 90.00520896816236 
loop_ 
_atom_site_label 
_atom_site_type_symbol 
_atom_site_fract_x 
_atom_site_fract_y 
_atom_site_fract_z 
_atom_site_charge 
C1          C  0.59680521  0.37446611  0.50038355     0.42530
N2          N  0.56795172  0.33682625  0.51403205     0.01420
C3          C  0.47508897  0.25343801  0.41354882    -0.06450
H4          H  0.45276043  0.36511021  0.41515809     0.06920
C5          C  0.42398084  0.36155586  0.52768683    -0.06800
Co6        Co  0.54287004  0.30280357  0.45952944     0.74180
N7          N  0.48734273  0.33677718  0.43751599    -0.25980
Co8        Co  0.46303129  0.30348935  0.46207359     0.74070
C9          C  0.41241249  0.37615267  0.49968029     0.42640
N10         N  0.49054339  0.33802963  0.56448936     0.01040
N11         N  0.44053765  0.33772897  0.48693897     0.01140
N12         N  0.52706620  0.25503371  0.40994243    -0.46830
H13         H  0.58933819  0.36447188  0.44865527     0.06900
N14         N  0.51782991  0.33663342  0.43652721     0.01430
N15         N  0.43837854  0.27068841  0.48739550     0.01170
C16         C  0.39731893  0.24528441  0.50044663     0.42770
N17         N  0.52103654  0.33767608  0.56349706    -0.25440
C18         C  0.59220693  0.25305338  0.47383086    -0.06360
N19         N  0.58571480  0.35918012  0.52516440    -0.46540
N20         N  0.41410660  0.25572360  0.47625167    -0.46770
C21         C  0.60912326  0.24330115  0.50160200     0.42550
N22         N  0.51724727  0.26974761  0.43504132     0.01420
N23         N  0.52027654  0.27113603  0.56588801    -0.25460
N24         N  0.56717036  0.33643732  0.48354408    -0.25950
N25         N  0.48970276  0.27096864  0.56664656     0.01060
H26         H  0.55481886  0.25548450  0.59760147     0.06950
H27         H  0.40592705  0.25571209  0.55195632     0.06980
N28         N  0.48674288  0.27002979  0.43688105    -0.26000
N29         N  0.44122371  0.33796776  0.51741799    -0.25610
N30         N  0.56874771  0.26975824  0.51475714     0.01420
C31         C  0.50464011  0.37420197  0.40737687     0.42820
C32         C  0.53198018  0.36093187  0.58081130    -0.06870
N33         N  0.43856191  0.27138031  0.51794666    -0.25610
H34         H  0.41945704  0.36713462  0.55165608     0.06970
N35         N  0.52923394  0.35859284  0.41849085    -0.46840
H36         H  0.55611725  0.36593747  0.58516642     0.06950
C37         C  0.50335324  0.24561256  0.60763099     0.42650
C38         C  0.58483646  0.35947314  0.47274615    -0.06360
Co39       Co  0.54478618  0.30352311  0.53972055     0.73820
N40         N  0.47953978  0.36059779  0.58205734    -0.46550
C41         C  0.50182692  0.24406197  0.39487020     0.42920
N42         N  0.59293513  0.25460644  0.52585913    -0.46540
Co43       Co  0.46478271  0.30425170  0.54193650     0.73890
C44         C  0.41401557  0.25537760  0.52828702    -0.06870
C45         C  0.47680888  0.35981008  0.41966431    -0.06430
N46         N  0.56820950  0.26980247  0.48417214    -0.25960
N47         N  0.42325363  0.36013851  0.47526582    -0.46720
H48         H  0.45081815  0.25309694  0.40759275     0.06930
C49         C  0.53092793  0.25519501  0.59025030    -0.06850
Cl50       Cl  0.50388781  0.30271907  0.50084262    -0.49850
C51         C  0.50442497  0.37604519  0.59280085     0.42680
H52         H  0.59996303  0.25278473  0.45005415     0.06890
N53         N  0.47887305  0.25640635  0.59132361    -0.46560
C54         C  0.59790080  0.49075015  0.38302323     0.42530
N55         N  0.56967031  0.47697917  0.34501006     0.01420
C56         C  0.47814600  0.57785548  0.25992538    -0.06450
H57         H  0.45318490  0.57540399  0.37162619     0.06920
C58         C  0.42485435  0.46230619  0.36740129    -0.06800
Co59       Co  0.54409881  0.53092467  0.31048882     0.74180
N60         N  0.48798545  0.55305643  0.34352151    -0.25980
Co61       Co  0.46428817  0.52827404  0.30988197     0.74070
C62         C  0.41242909  0.49029063  0.38152740     0.42640
N63         N  0.49290529  0.42602759  0.34514942     0.01040
N64         N  0.44150128  0.50312138  0.34376493     0.01140
N65         N  0.53019463  0.57827799  0.26109879    -0.46830
H66         H  0.59005544  0.54250369  0.37311330     0.06900
N67         N  0.51848047  0.55389902  0.34380608     0.01430
N68         N  0.44046373  0.50215142  0.27677287     0.01170
C69         C  0.40009543  0.48716911  0.25107262     0.42770
N70         N  0.52341278  0.42702397  0.34511149    -0.25440
C71         C  0.59283693  0.51873701  0.26085221    -0.06360
N72         N  0.58723405  0.46594770  0.36750606    -0.46540
N73         N  0.41581144  0.51218749  0.26156764    -0.46770
C74         C  0.61200843  0.49218485  0.25202658     0.42550
N75         N  0.51903800  0.55444635  0.27669441     0.01420
N76         N  0.52392738  0.42498179  0.27854575    -0.25460
N77         N  0.56848001  0.50745755  0.34467805    -0.25950
N78         N  0.49339382  0.42348008  0.27817024     0.01060
H79         H  0.55957461  0.39512994  0.26216385     0.06950
H80         H  0.41115883  0.43611266  0.26215168     0.06980
N81         N  0.48848497  0.55393906  0.27683963    -0.26000
N82         N  0.44267522  0.47261815  0.34421115    -0.25610
N83         N  0.57218688  0.47655719  0.27817368     0.01420
C84         C  0.50503333  0.58295957  0.38132243     0.42820
C85         C  0.53405784  0.40967625  0.36848745    -0.06870
N86         N  0.44174590  0.47161046  0.27760651    -0.25610
H87         H  0.42048631  0.43831224  0.37300771     0.06970
N88         N  0.52971581  0.57176779  0.36598080    -0.46840
H89         H  0.55812987  0.40537633  0.37384172     0.06950
C90         C  0.50834168  0.38292987  0.25266381     0.42650
C91         C  0.58582498  0.51837632  0.36796793    -0.06360
Co92       Co  0.54759202  0.45116078  0.31136116     0.73820
N93         N  0.48162901  0.40847328  0.36754704    -0.46550
C94         C  0.50598982  0.59445852  0.24968555     0.42920
N95         N  0.59733310  0.46688923  0.26346565    -0.46540
Co96       Co  0.46746937  0.44812700  0.31098708     0.73890
C97         C  0.41790003  0.46015817  0.26147010    -0.06870
C98         C  0.47726668  0.57088882  0.36651855    -0.06430
N99         N  0.56989017  0.50699251  0.27786606    -0.25960
N100        N  0.42345718  0.51469735  0.36563665    -0.46720
H101        H  0.45438130  0.58567386  0.25967402     0.06930
C102        C  0.53535365  0.40116474  0.26237344    -0.06850
Cl103      Cl  0.50584446  0.48959953  0.31020994    -0.49850
C104        C  0.50629036  0.39769958  0.38327400     0.42680
H105        H  0.59773296  0.54316740  0.25936815     0.06890
N106        N  0.48333595  0.39859004  0.26332769    -0.46560
C107        C  0.50677986  0.60685167  0.40501869     0.42530
N108        N  0.49372441  0.64508070  0.43335621     0.01420
C109        C  0.59586626  0.72804916  0.52522580    -0.06450
H110        H  0.59132766  0.61744946  0.55008600     0.06920
C111        C  0.47763227  0.62406065  0.57785076    -0.06800
Co112      Co  0.54855093  0.67861872  0.45830065     0.74180
N113        N  0.56946970  0.64533368  0.51483359    -0.25980
Co114      Co  0.54531905  0.67959884  0.53824991     0.74070
C115        C  0.50512045  0.60905331  0.59017184     0.42640
N116        N  0.44233458  0.64666782  0.51014606     0.01040
N117        N  0.51921081  0.64639803  0.56114187     0.01140
N118        N  0.59815927  0.72632748  0.47325017    -0.46830
H119        H  0.55871172  0.61590585  0.41268840     0.06900
N120        N  0.57072843  0.64491214  0.48436007     0.01430
N121        N  0.52021103  0.71356076  0.56182143     0.01170
C122        C  0.50674681  0.74033472  0.60195732     0.42770
N123        N  0.44363794  0.64621677  0.47968402    -0.25440
C124        C  0.53552702  0.72739838  0.40734835    -0.06360
N125        N  0.48225444  0.62278059  0.41576420    -0.46540
N126        N  0.53112399  0.72894764  0.58594981    -0.46770
C127        C  0.50790032  0.73767244  0.39039800     0.42550
N128        N  0.57316448  0.71189691  0.48359142     0.01420
N129        N  0.44282223  0.71284214  0.47872412    -0.25460
N130        N  0.52422205  0.64487117  0.43437552    -0.25950
N131        N  0.44163136  0.71383931  0.50922662     0.01060
H132        H  0.41244124  0.72868889  0.44316092     0.06950
H133        H  0.45520967  0.73041714  0.59240115     0.06980
N134        N  0.57179779  0.71192313  0.51413236    -0.26000
N135        N  0.48871752  0.64690318  0.56008461    -0.25610
N136        N  0.49427862  0.71217182  0.43122092     0.01420
C137        C  0.59942150  0.60727121  0.49846465     0.42820
C138        C  0.42588927  0.62304821  0.46918355    -0.06870
N139        N  0.48963983  0.71350288  0.56103358    -0.25610
H140        H  0.45346069  0.61921702  0.58220481     0.06970
N141        N  0.58864502  0.62255030  0.47353158    -0.46840
H142        H  0.42165674  0.61748401  0.44515251     0.06950
C143        C  0.40164006  0.74009361  0.49418265     0.42650
C144        C  0.53467735  0.62140181  0.41703726    -0.06360
Co145      Co  0.46848881  0.67935703  0.45549403     0.73820
N146        N  0.42422976  0.62474977  0.52155153    -0.46550
C147        C  0.61390405  0.73731310  0.49803345     0.42920
N148        N  0.48346792  0.72725112  0.40690069    -0.46540
Co149      Co  0.46528156  0.68058402  0.53532274     0.73890
C150        C  0.47908208  0.73026027  0.58494852    -0.06870
C151        C  0.58701087  0.62229553  0.52592498    -0.06430
N152        N  0.52485314  0.71144395  0.43177149    -0.25960
N153        N  0.53006823  0.62414849  0.57914904    -0.46720
H154        H  0.60276234  0.72813629  0.54926908     0.06930
C155        C  0.41918640  0.72925284  0.46720908    -0.06850
Cl156      Cl  0.50694573  0.68029735  0.49683414    -0.49850
C157        C  0.41334052  0.60888042  0.49701665     0.42680
H158        H  0.55929947  0.72690532  0.39955744     0.06890
N159        N  0.41725342  0.72948812  0.51922146    -0.46560
C160        C  0.62066448  0.39822854  0.50166395     0.42530
N161        N  0.65867721  0.42639450  0.48764055     0.01420
C162        C  0.74380473  0.51895599  0.58716662    -0.06450
H163        H  0.63221778  0.54451211  0.58280570     0.06920
C164        C  0.63794644  0.57081898  0.46976843    -0.06800
Co165      Co  0.69328140  0.45197271  0.54132320     0.74180
N166        N  0.66055224  0.50900330  0.56188165    -0.25980
Co167      Co  0.69461923  0.53197759  0.53699744     0.74070
C168        C  0.62339456  0.58355404  0.49731008     0.42640
N169        N  0.65975203  0.50256057  0.43519356     0.01040
N170        N  0.66107966  0.55478037  0.51115701     0.01140
N171        N  0.74200746  0.46698472  0.58946173    -0.46830
H172        H  0.63063925  0.40647354  0.55331733     0.06900
N173        N  0.66008611  0.47853155  0.56349203     0.01430
N174        N  0.72827538  0.55498350  0.51084510     0.01170
C175        C  0.75445578  0.59515380  0.49618191     0.42770
N176        N  0.65923283  0.47210566  0.43695372    -0.25440
C177        C  0.74156110  0.40053953  0.52848923    -0.06360
N178        N  0.63618516  0.40868912  0.47677000    -0.46540
N179        N  0.74376428  0.57937211  0.52101860    -0.46770
C180        C  0.75140792  0.38312898  0.50097098     0.42550
N181        N  0.72713231  0.47737039  0.56479048     0.01420
N182        N  0.72597743  0.47063998  0.43549626    -0.25460
N183        N  0.65899113  0.42777406  0.51809261    -0.25950
N184        N  0.72658298  0.50106145  0.43279249     0.01060
H185        H  0.74302400  0.43354218  0.40778257     0.06950
H186        H  0.74347927  0.58452209  0.44502646     0.06980
N187        N  0.72725178  0.50791868  0.56332203    -0.26000
N188        N  0.66102429  0.55323767  0.48068877    -0.25610
N189        N  0.72578771  0.42384719  0.48715306     0.01420
C190        C  0.62209670  0.49294020  0.59146868     0.42820
C191        C  0.63574890  0.46149345  0.41970437    -0.06870
N192        N  0.72758871  0.55372921  0.48030130    -0.25610
H193        H  0.63257297  0.57469720  0.44564247     0.06970
N194        N  0.63748486  0.46789639  0.58116840    -0.46840
H195        H  0.63002640  0.43742753  0.41585164     0.06950
C196        C  0.75184817  0.48406482  0.39297393     0.42650
C197        C  0.63569685  0.41056341  0.52916155    -0.06360
Co198      Co  0.69269420  0.44802448  0.46168515     0.73820
N199        N  0.63766094  0.51384958  0.41725555    -0.46550
C200        C  0.75329385  0.49169434  0.60504004     0.42920
N201        N  0.74063642  0.39930779  0.47646879    -0.46540
Co202      Co  0.69410565  0.52787028  0.45693004     0.73890
C203        C  0.74392491  0.57759362  0.46902083    -0.06870
C204        C  0.63730733  0.52029858  0.57902914    -0.06430
N205        N  0.72555058  0.42486322  0.51767466    -0.25960
N206        N  0.63896930  0.57293223  0.52213879    -0.46720
H207        H  0.74411205  0.54299241  0.59413438     0.06930
C208        C  0.74238727  0.45805986  0.41252473    -0.06850
Cl209      Cl  0.69417767  0.48996535  0.49923802    -0.49850
C210        C  0.62152979  0.48925870  0.40698941     0.42680
H211        H  0.74141179  0.39326408  0.55239779     0.06890
N212        N  0.74134808  0.50990484  0.40739764    -0.46560
C213        C  0.41263112  0.49357584  0.61566567     0.42530
N214        N  0.44098626  0.48052125  0.65388608     0.01420
C215        C  0.53471346  0.58280457  0.73479883    -0.06450
H216        H  0.55809069  0.57730037  0.62362765     0.06920
C217        C  0.58536486  0.46440606  0.62969630    -0.06800
Co218      Co  0.46722202  0.53529049  0.68660553     0.74180
N219        N  0.52316677  0.55601734  0.65232528    -0.25980
Co220      Co  0.54709230  0.53197554  0.68615692     0.74070
C221        C  0.59785687  0.49190795  0.61483609     0.42640
N222        N  0.51754582  0.42920706  0.65366678     0.01040
N223        N  0.56926690  0.50592957  0.65251865     0.01140
N224        N  0.48266213  0.58434657  0.73431774    -0.46830
H225        H  0.42105207  0.54547654  0.62419875     0.06900
N226        N  0.49268525  0.55729133  0.65233118     0.01430
N227        N  0.57125427  0.50668621  0.71955845     0.01170
C228        C  0.61186533  0.49276141  0.74540282     0.42770
N229        N  0.48705616  0.43038938  0.65417496    -0.25440
C230        C  0.41823147  0.52371099  0.73694130    -0.06360
N231        N  0.42319262  0.46906507  0.63172916    -0.46540
N232        N  0.59579064  0.51733339  0.73450319    -0.46770
C233        C  0.40036949  0.49684307  0.74751031     0.42550
N234        N  0.49305307  0.55968382  0.71941998     0.01420
N235        N  0.48788825  0.42956281  0.72077201    -0.25460
N236        N  0.44240304  0.51099647  0.65340963    -0.25950
N237        N  0.51845696  0.42832396  0.72068557     0.01060
H238        H  0.45304830  0.39868405  0.73781297     0.06950
H239        H  0.60160117  0.44133554  0.73537241     0.06980
N240        N  0.52359787  0.55859759  0.71885621    -0.26000
N241        N  0.56789998  0.47545363  0.65278481    -0.25610
N242        N  0.44000608  0.48155824  0.72094849     0.01420
C243        C  0.50634044  0.58543398  0.61416690     0.42820
C244        C  0.47588902  0.41260844  0.63135551    -0.06870
N245        N  0.57028735  0.47612459  0.71930396    -0.25610
H246        H  0.58961325  0.44024247  0.62473656     0.06970
N247        N  0.48155787  0.57495092  0.62991905    -0.46840
H248        H  0.45169661  0.40832807  0.62652282     0.06950
C249        C  0.50446313  0.38818610  0.74713136     0.42650
C250        C  0.42502695  0.52145110  0.62996673    -0.06360
Co251      Co  0.46367376  0.45531612  0.68781842     0.73820
N252        N  0.52831534  0.41108234  0.63145677    -0.46550
C253        C  0.50742929  0.60036251  0.74486525     0.42920
N254        N  0.41557207  0.47168731  0.73660923    -0.46540
Co255      Co  0.54372813  0.45199420  0.68690306     0.73890
C256        C  0.59445824  0.46528712  0.73547995    -0.06870
C257        C  0.53397687  0.57319564  0.62893770    -0.06430
N258        N  0.44151299  0.51207937  0.72013290    -0.25960
N259        N  0.58721603  0.51681835  0.63023826    -0.46720
H260        H  0.55865508  0.59004198  0.73429962     0.06930
C261        C  0.47704327  0.40578160  0.73748231    -0.06850
Cl262      Cl  0.50543497  0.49363337  0.68764518    -0.49850
C263        C  0.50331477  0.40012387  0.61637475     0.42680
H264        H  0.41183595  0.54788639  0.73713153     0.06890
N265        N  0.52905839  0.40383245  0.73572693    -0.46560
C266        C  0.38881617  0.40004121  0.49780527     0.42530
N267        N  0.35100814  0.42869125  0.51116863     0.01420
C268        C  0.26814977  0.52112879  0.40997620    -0.06450
H269        H  0.37956737  0.54423440  0.41310204     0.06920
C270        C  0.37480425  0.57297529  0.52650519    -0.06800
Co271      Co  0.31695618  0.45388955  0.45697490     0.74180
N272        N  0.35088054  0.50977674  0.43524012    -0.25980
Co273      Co  0.31743344  0.53399908  0.45998399     0.74070
C274        C  0.38940769  0.58514085  0.49871818     0.42640
N275        N  0.35170094  0.50543964  0.56239771     0.01040
N276        N  0.35148493  0.55640374  0.48542261     0.01140
N277        N  0.26851671  0.46908783  0.40862388    -0.46830
H278        H  0.37914883  0.40739982  0.44595557     0.06900
N279        N  0.35066762  0.47927086  0.43416779     0.01430
N280        N  0.28446586  0.55843563  0.48599285     0.01170
C281        C  0.25959563  0.59935254  0.50106211     0.42770
N282        N  0.35148399  0.47495784  0.56129064    -0.25440
C283        C  0.26736089  0.40396301  0.47063536    -0.06360
N284        N  0.37332699  0.41107599  0.52244133    -0.46540
N285        N  0.26989624  0.58350344  0.47602237    -0.46770
C286        C  0.25711384  0.38725547  0.49838872     0.42550
N287        N  0.28361479  0.47957007  0.43314131     0.01420
N288        N  0.28471788  0.47495216  0.56259808    -0.25460
N289        N  0.35077581  0.42950714  0.48069192    -0.25950
N290        N  0.28478478  0.50542532  0.56477554     0.01060
H291        H  0.26745267  0.43884014  0.59162554     0.06950
H292        H  0.26998780  0.58766383  0.55210416     0.06980
N293        N  0.28423975  0.51013286  0.43410372    -0.26000
N294        N  0.35155070  0.55537531  0.51592107    -0.25610
N295        N  0.28388673  0.42743559  0.51161727     0.01420
C296        C  0.38848167  0.49228516  0.40522887     0.42820
C297        C  0.37448254  0.46417636  0.57910967    -0.06870
N298        N  0.28501936  0.55702956  0.51652683    -0.25610
H299        H  0.38016225  0.57735181  0.55055120     0.06970
N300        N  0.37271676  0.46780363  0.41627624    -0.46840
H301        H  0.37951093  0.44008068  0.58361588     0.06950
C302        C  0.25902068  0.48973409  0.60477294     0.42650
C303        C  0.37396639  0.41191129  0.47001595    -0.06360
Co304      Co  0.31749777  0.45127924  0.53677169     0.73820
N305        N  0.37380054  0.51659821  0.58041303    -0.46550
C306        C  0.25794050  0.49376020  0.39250263     0.42920
N307        N  0.26839016  0.40347263  0.52266082    -0.46540
Co308      Co  0.31793072  0.53102177  0.54016505     0.73890
C309        C  0.26933834  0.58115341  0.52801049    -0.06870
C310        C  0.37407971  0.52021134  0.41748042    -0.06430
N311        N  0.28410049  0.42797078  0.48108479    -0.25960
N312        N  0.37370109  0.57419584  0.47411239    -0.46720
H313        H  0.26862775  0.54508292  0.40291902     0.06930
C314        C  0.26810382  0.46316751  0.58583071    -0.06850
Cl315      Cl  0.31696717  0.49257681  0.49846051    -0.49850
C316        C  0.38919696  0.49189051  0.59146718     0.42680
H317        H  0.26721185  0.39625148  0.44684302     0.06890
N318        N  0.27019422  0.51507296  0.59000831    -0.46560
C319        C  0.89024539  0.58591537  0.00049995     0.42530
N320        N  0.85178677  0.55817476  0.98674486     0.01420
C321        C  0.76870434  0.46421196  0.08641825    -0.06450
H322        H  0.88038723  0.44078607  0.08248571     0.06920
C323        C  0.87383922  0.41334072  0.96952093    -0.06800
Co324      Co  0.81815351  0.53230179  0.04105923     0.74180
N325        N  0.85186887  0.47596118  0.06133253    -0.25980
Co326      Co  0.81783719  0.45256883  0.03682889     0.74070
C327        C  0.88850411  0.40072055  0.99709942     0.42640
N328        N  0.85100151  0.48182108  0.93463871     0.01040
N329        N  0.85126499  0.43000800  0.01093106     0.01140
N330        N  0.76987569  0.51616769  0.09007753    -0.46830
H331        H  0.88090052  0.57749615  0.05219262     0.06900
N332        N  0.85197119  0.50641494  0.06296999     0.01430
N333        N  0.78409822  0.42912670  0.01148296     0.01170
C334        C  0.75700360  0.38924715  0.99800786     0.42770
N335        N  0.85113597  0.51231167  0.93607583    -0.25440
C336        C  0.76966936  0.58285076  0.02936233    -0.06360
N337        N  0.87436426  0.57567259  0.97570377    -0.46540
N338        N  0.76839169  0.40523823  0.02236953    -0.46770
C339        C  0.75981890  0.60114769  0.00250421     0.42550
N340        N  0.78492066  0.50652135  0.06515246     0.01420
N341        N  0.78448397  0.51271185  0.93476721    -0.25460
N342        N  0.85183705  0.55671408  0.01721398    -0.25950
N343        N  0.78394500  0.48214339  0.93346559     0.01060
H344        H  0.76851625  0.54792135  0.90370408     0.06950
H345        H  0.76714953  0.39856090  0.94648101     0.06980
N346        N  0.78518631  0.47605574  0.06310453    -0.26000
N347        N  0.85100203  0.43124329  0.98047118    -0.25610
N348        N  0.78470621  0.56033606  0.98720827     0.01420
C349        C  0.88998492  0.49246847  0.09113736     0.42820
C350        C  0.87437017  0.52306008  0.91856300    -0.06870
N351        N  0.78432112  0.42989268  0.98094599    -0.25610
H352        H  0.87877684  0.40893987  0.94538810     0.06970
N353        N  0.87433827  0.51733999  0.08081853    -0.46840
H354        H  0.87980663  0.54715555  0.91453167     0.06950
C355        C  0.75821031  0.49673952  0.89304020     0.42650
C356        C  0.87539439  0.57368614  0.02808201    -0.06360
Co357      Co  0.81768008  0.53621393  0.96098720     0.73820
N358        N  0.87315306  0.47066845  0.91667820    -0.46550
C359        C  0.75881688  0.49086011  0.10498971     0.42920
N360        N  0.77006902  0.58540794  0.97738818    -0.46540
Co361      Co  0.81723993  0.45609132  0.95707361     0.73890
C362        C  0.76742308  0.40604780  0.97034095    -0.06870
C363        C  0.87516667  0.46494451  0.07855454    -0.06430
N364        N  0.78531988  0.55875170  0.01773049    -0.25960
N365        N  0.87324460  0.41174287  0.02191230    -0.46720
H366        H  0.76868568  0.43991089  0.09211728     0.06930
C367        C  0.76826576  0.52392966  0.91078560    -0.06850
Cl368      Cl  0.81695347  0.49433899  0.99893450    -0.49850
C369        C  0.88888573  0.49536148  0.90601656     0.42680
H370        H  0.77031414  0.58927532  0.05348640     0.06890
N371        N  0.76889763  0.47191415  0.90881901    -0.46560
C372        C  0.00497094  0.40008331  0.88200639     0.42530
N373        N  0.99181444  0.42906838  0.84430785     0.01420
C374        C  0.09514784  0.52039900  0.76229030    -0.06450
H375        H  0.09137286  0.54322628  0.87426551     0.06920
C376        C  0.97924406  0.57339154  0.86886312    -0.06800
Co377      Co  0.04681979  0.45383979  0.81089677     0.74180
N378        N  0.06923715  0.50903025  0.84530645    -0.25980
Co379      Co  0.04555135  0.53373638  0.81181596     0.74070
C380        C  0.00705416  0.58498909  0.88383571     0.42640
N381        N  0.94220021  0.50707108  0.84493522     0.01040
N382        N  0.02032023  0.55652215  0.84576023     0.01140
N383        N  0.09605734  0.46831961  0.76288033    -0.46830
H384        H  0.05685647  0.40721388  0.87254189     0.06900
N385        N  0.06981598  0.47853344  0.84504363     0.01430
N386        N  0.02078372  0.55865436  0.77875002     0.01170
C387        C  0.00781390  0.59962302  0.75312780     0.42770
N388        N  0.94267236  0.47655992  0.84456298    -0.25440
C389        C  0.03324214  0.40511548  0.76090836    -0.06360
N390        N  0.98037377  0.41135535  0.86650643    -0.46540
N391        N  0.03200867  0.58301439  0.76398466    -0.46770
C392        C  0.00582276  0.38766619  0.75101642     0.42550
N393        N  0.07168672  0.47911110  0.77803374     0.01420
N394        N  0.94110919  0.47732357  0.77800251    -0.25460
N395        N  0.02232858  0.42966346  0.84423669    -0.25950
N396        N  0.94107866  0.50791517  0.77790295     0.01060
H397        H  0.90837912  0.44371527  0.76170729     0.06950
H398        H  0.95615235  0.59046432  0.76271798     0.06980
N399        N  0.07112897  0.50966277  0.77868016    -0.26000
N400        N  0.98981582  0.55594914  0.84555078    -0.25610
N401        N  0.99183930  0.42797825  0.77731180     0.01420
C402        C  0.09832372  0.49122984  0.88325293     0.42820
C403        C  0.92471752  0.46595862  0.86748056    -0.06870
N404        N  0.99021530  0.55835210  0.77898457    -0.25610
H405        H  0.95519892  0.57807308  0.87399047     0.06970
N406        N  0.08725285  0.46681691  0.86732758    -0.46840
H407        H  0.91982721  0.44191017  0.87237839     0.06950
C408        C  0.89996989  0.49543201  0.75219343     0.42650
C409        C  0.03282334  0.41189002  0.86732404    -0.06360
Co410      Co  0.96664571  0.45241803  0.81071124     0.73820
N411        N  0.92439157  0.51840239  0.86714393    -0.46550
C412        C  0.11224664  0.49285865  0.75207888     0.42920
N413        N  0.98118505  0.40351102  0.76217205    -0.46540
Co414      Co  0.96557432  0.53249362  0.81152062     0.73890
C415        C  0.97994220  0.58272988  0.76278675    -0.06870
C416        C  0.08672001  0.51925869  0.86873835    -0.06430
N417        N  0.02241032  0.42885135  0.77760518    -0.25960
N418        N  0.03169948  0.57392936  0.86826406    -0.46720
H419        H  0.10253940  0.54429175  0.76239896     0.06930
C420        C  0.91656545  0.46736200  0.76175463    -0.06850
Cl421      Cl  0.00613913  0.49312184  0.81072817    -0.49850
C422        C  0.91289770  0.49375267  0.88237133     0.42680
H423        H  0.05723120  0.39806057  0.76075367     0.06890
N424        N  0.91684347  0.51939922  0.76313148    -0.46560
C425        C  0.12200130  0.39695324  0.99987155     0.42530
N426        N  0.16002607  0.42549054  0.98639674     0.01420
C427        C  0.24457146  0.51900517  0.08569326    -0.06450
H428        H  0.13220484  0.54219992  0.08354384     0.06920
C429        C  0.13751850  0.57080829  0.97128162    -0.06800
Co430      Co  0.19406862  0.45103699  0.04076936     0.74180
N431        N  0.16065562  0.50722130  0.06194135    -0.25980
Co432      Co  0.19437579  0.53096913  0.03740256     0.74070
C433        C  0.12318794  0.58319700  0.99913704     0.42640
N434        N  0.16005641  0.50262953  0.93558440     0.01040
N435        N  0.16057085  0.55378388  0.01226831     0.01140
N436        N  0.24255400  0.46711086  0.08982349    -0.46830
H437        H  0.13163056  0.40475151  0.05167511     0.06900
N438        N  0.16044885  0.47673794  0.06311006     0.01430
N439        N  0.22770182  0.55481410  0.01201496     0.01170
C440        C  0.25463863  0.59471175  0.99847640     0.42770
N441        N  0.16003019  0.47212371  0.93655792    -0.25440
C442        C  0.24298904  0.40104161  0.02798730    -0.06360
N443        N  0.13760591  0.40785346  0.97520862    -0.46540
N444        N  0.24344963  0.57870742  0.02288329    -0.46770
C445        C  0.25234205  0.38290138  0.00084929     0.42550
N446        N  0.22739482  0.47676069  0.06496314     0.01420
N447        N  0.22659607  0.47201170  0.93447498    -0.25460
N448        N  0.16019678  0.42652935  0.01688722    -0.25950
N449        N  0.22702272  0.50259443  0.93368553     0.01060
H450        H  0.24240229  0.43740254  0.90264906     0.06950
H451        H  0.24430291  0.58551528  0.94700374     0.06980
N452        N  0.22742002  0.50721948  0.06283364    -0.26000
N453        N  0.16046635  0.55280789  0.98180985    -0.25610
N454        N  0.22703714  0.42363255  0.98625045     0.01420
C455        C  0.12253476  0.49043942  0.09145662     0.42820
C456        C  0.13669403  0.46152944  0.91908786    -0.06870
N457        N  0.22718874  0.55417038  0.98149446    -0.25610
H458        H  0.13231424  0.57542579  0.94725286     0.06970
N459        N  0.13805229  0.46564687  0.08075887    -0.46840
H460        H  0.13134687  0.43747476  0.91467837     0.06950
C461        C  0.25240200  0.48883788  0.89282630     0.42650
C462        C  0.13691052  0.40902493  0.02759767    -0.06360
Co463      Co  0.19377656  0.44799642  0.96069589     0.73820
N464        N  0.13774739  0.51395190  0.91796534    -0.46550
C465        C  0.25393479  0.49242098  0.10454303     0.42920
N466        N  0.24156707  0.39865009  0.97599986    -0.46540
Co467      Co  0.19398510  0.52820821  0.95785200     0.73890
C468        C  0.24408715  0.57795009  0.97084037    -0.06870
C469        C  0.13743200  0.51808398  0.07935036    -0.06430
N470        N  0.22687247  0.42502554  0.01680170    -0.25960
N471        N  0.13873105  0.57196276  0.02368183    -0.46720
H472        H  0.24583828  0.54341666  0.09078064     0.06930
C473        C  0.24260314  0.46127663  0.91013554    -0.06850
Cl474      Cl  0.19480097  0.48947836  0.99914324    -0.49850
C475        C  0.12202001  0.48935113  0.90709433     0.42680
H476        H  0.24306937  0.39436654  0.05207089     0.06890
N477        N  0.24181242  0.51332679  0.90914157    -0.46560
C478        C  0.00856743  0.58404292  0.11672097     0.42530
N479        N  0.99467580  0.55499683  0.15409044     0.01420
C480        C  0.09287686  0.45790635  0.23570931    -0.06450
H481        H  0.08952151  0.43721791  0.12340145     0.06920
C482        C  0.97595914  0.41092130  0.12860848    -0.06800
Co483      Co  0.04862732  0.52777693  0.18740710     0.74180
N484        N  0.06852031  0.47194913  0.15257659    -0.25980
Co485      Co  0.04359933  0.44780550  0.18569403     0.74070
C486        C  0.00339247  0.39826577  0.11372505     0.42640
N487        N  0.94198099  0.47912294  0.15278487     0.01040
N488        N  0.01758949  0.42659239  0.15154035     0.01140
N489        N  0.09741597  0.50981491  0.23525202    -0.46830
H490        H  0.06028052  0.57516177  0.12600607     0.06900
N491        N  0.07037062  0.50239533  0.15315323     0.01430
N492        N  0.01773531  0.42326442  0.21825841     0.00450
C493        C  0.00219567  0.38234692  0.24248501     0.42770
N494        N  0.94368696  0.50957823  0.15326179    -0.25440
C495        C  0.03687001  0.57701462  0.23767044    -0.06360
N496        N  0.98373265  0.57329097  0.13212893    -0.46540
N497        N  0.02742740  0.39760193  0.23195691    -0.46770
C498        C  0.00994594  0.59510817  0.24779829     0.42550
N499        N  0.07232324  0.50078993  0.22004605     0.01420
N500        N  0.94227135  0.50858730  0.21989847    -0.25460
N501        N  0.02515272  0.55341742  0.15417014    -0.25950
N502        N  0.94031175  0.47809505  0.21974433     0.01060
H503        H  0.91291559  0.54432732  0.23687580     0.06950
H504        H  0.95121001  0.39562797  0.23393082     0.06980
N505        N  0.06983063  0.47032170  0.21921697    -0.26000
N506        N  0.98713040  0.42820928  0.15180844    -0.25610
N507        N  0.99479642  0.55548056  0.22110487     0.01420
C508        C  0.09860443  0.48900879  0.11504272     0.42820
C509        C  0.92638331  0.52088725  0.13013433    -0.06870
N510        N  0.98725449  0.42554764  0.21833541    -0.25610
H511        H  0.95176418  0.40690098  0.12358192     0.06970
N512        N  0.08839466  0.51364137  0.13113662    -0.46840
H513        H  0.92254574  0.54510440  0.12513388     0.06950
C514        C  0.90022782  0.49312598  0.24585092     0.42650
C515        C  0.03613021  0.57119270  0.13125444    -0.06360
Co516      Co  0.96868225  0.53243977  0.18740731     0.73820
N517        N  0.92409723  0.46849438  0.13033233    -0.46550
C518        C  0.11189551  0.48409555  0.24584568     0.42920
N519        N  0.98488757  0.58003357  0.23654185    -0.46540
Co520      Co  0.96389920  0.45260313  0.18603109     0.73890
C521        C  0.97549516  0.40154471  0.23391617    -0.06870
C522        C  0.08578036  0.46128699  0.12916040    -0.06430
N523        N  0.02532504  0.55364962  0.22083389    -0.25960
N524        N  0.02835799  0.40863890  0.12921597    -0.46720
H525        H  0.09847641  0.43352837  0.23579119     0.06930
C526        C  0.91872952  0.52005957  0.23642339    -0.06850
Cl527      Cl  0.00621066  0.49016978  0.18742174    -0.49850
C528        C  0.91373981  0.49352811  0.11501361     0.42680
H529        H  0.06104733  0.58341956  0.23794737     0.06890
N530        N  0.91541919  0.46811482  0.23458488    -0.46560
C531        C  0.91165827  0.37624792  0.99845670     0.42530
N532        N  0.93954547  0.33793767  0.98466676     0.01420
C533        C  0.03109679  0.25221446  0.08478396    -0.06450
H534        H  0.05619340  0.36418207  0.08230803     0.06920
C535        C  0.08483907  0.35973185  0.97019839    -0.06800
Co536      Co  0.96456860  0.30319160  0.03867800     0.74180
N537        N  0.02105737  0.33597275  0.06064626    -0.25980
Co538      Co  0.04474488  0.30237585  0.03593753     0.74070
C539        C  0.09755086  0.37368314  0.99811538     0.42640
N540        N  0.01655945  0.33806348  0.93402784     0.01040
N541        N  0.06789432  0.33632762  0.01102925     0.01140
N542        N  0.97905923  0.25351986  0.08635177    -0.46830
H543        H  0.91929568  0.36617078  0.05017508     0.06900
N544        N  0.99055476  0.33637163  0.06171208     0.01430
N545        N  0.06863551  0.26924999  0.00986300     0.01170
C546        C  0.10838289  0.24271043  0.99477267     0.42770
N547        N  0.98606012  0.33809996  0.93495790    -0.25440
C548        C  0.91382888  0.25491655  0.02495134    -0.06360
N549        N  0.92224312  0.36066987  0.97364407    -0.46540
N550        N  0.09304255  0.25360212  0.01984814    -0.46770
C551        C  0.89626606  0.24555993  0.99744224     0.42550
N552        N  0.98973770  0.26921340  0.06229939     0.01420
N553        N  0.98555966  0.27149754  0.93246009    -0.25460
N554        N  0.94060171  0.33755100  0.01514823    -0.25950
N555        N  0.01610758  0.27102655  0.93151608     0.01060
H556        H  0.95064149  0.25520896  0.90128849     0.06950
H557        H  0.09728246  0.25335631  0.94372281     0.06980
N558        N  0.02029621  0.26930357  0.06128692    -0.26000
N559        N  0.06671870  0.33680041  0.98055454    -0.25610
N560        N  0.93723871  0.27091016  0.98371930     0.01420
C561        C  0.00449965  0.37415998  0.09022351     0.42820
C562        C  0.97547442  0.36150687  0.91763329    -0.06870
N563        N  0.06730760  0.27009921  0.97935443    -0.25610
H564        H  0.08933587  0.36516713  0.94620145     0.06970
N565        N  0.97959547  0.35883424  0.07942191    -0.46840
H566        H  0.95141799  0.36684631  0.91322816     0.06950
C567        C  0.00204165  0.24521140  0.89100855     0.42650
C568        C  0.92349453  0.36100509  0.02605674    -0.06360
Co569      Co  0.96182542  0.30427130  0.95876325     0.73820
N570        N  0.02790573  0.36044255  0.91649649    -0.46550
C571        C  0.00362669  0.24191301  0.10199155     0.42920
N572        N  0.91242519  0.25648466  0.97294977    -0.46540
Co573      Co  0.04182409  0.30373387  0.95609158     0.73890
C574        C  0.09068112  0.25333903  0.96782994    -0.06870
C575        C  0.03204192  0.35908499  0.07812511    -0.06430
N576        N  0.93817750  0.27090850  0.01427040    -0.25960
N577        N  0.08633035  0.35793991  0.02256403    -0.46720
H578        H  0.05513077  0.25179334  0.09157758     0.06930
C579        C  0.97462018  0.25521641  0.90842641    -0.06850
Cl580      Cl  0.00323770  0.30290792  0.99736788    -0.49850
C581        C  0.00327952  0.37622645  0.90571151     0.42680
H582        H  0.90642556  0.25508892  0.04882917     0.06890
N583        N  0.02668286  0.25597762  0.90703353    -0.46560
C584        C  0.91467163  0.60909992  0.99925400     0.42530
N585        N  0.94389583  0.64639803  0.01313907     0.01420
C586        C  0.03736245  0.72976999  0.91311727    -0.06450
H587        H  0.06042361  0.61788986  0.91599508     0.06920
C588        C  0.08816824  0.62240015  0.02878275    -0.06800
Co589      Co  0.96961386  0.68032814  0.95897953     0.74180
N590        N  0.02556594  0.64639210  0.93774740    -0.25980
Co591      Co  0.04939989  0.67994087  0.96238002     0.74070
C592        C  0.10001403  0.60762118  0.00093590     0.42640
N593        N  0.02089860  0.64595515  0.06462360     0.01040
N594        N  0.07186572  0.64596300  0.98777043     0.01140
N595        N  0.98534495  0.72879048  0.91037988    -0.46830
H596        H  0.92267811  0.61892831  0.94757547     0.06900
N597        N  0.99508895  0.64647900  0.93644717     0.01430
N598        N  0.07337947  0.71311298  0.98786603     0.01170
C599        C  0.11499948  0.73765878  0.00083447     0.42770
N600        N  0.99039687  0.64605397  0.06332846    -0.25440
C601        C  0.92013167  0.73010978  0.97196341    -0.06360
N602        N  0.92573206  0.62432520  0.02411134    -0.46540
N603        N  0.09779615  0.72774248  0.97672809    -0.46770
C604        C  0.90262712  0.74013472  0.99927898     0.42550
N605        N  0.99538126  0.71352667  0.93499255     0.01420
N606        N  0.99052988  0.71265288  0.06519164    -0.25460
N607        N  0.94498792  0.64669361  0.98266042    -0.25950
N608        N  0.02109571  0.71292684  0.06656617     0.01060
H609        H  0.95521783  0.72853364  0.09605497     0.06950
H610        H  0.10655021  0.72725221  0.05229957     0.06980
N611        N  0.02589134  0.71309381  0.93655053    -0.26000
N612        N  0.07090292  0.64589991  0.01825204    -0.25610
N613        N  0.94259623  0.71347054  0.01349405     0.01420
C614        C  0.00862007  0.60865219  0.90777374     0.42820
C615        C  0.97956706  0.62281246  0.08074200    -0.06870
N616        N  0.07322195  0.71244300  0.01842779    -0.25610
H617        H  0.09241751  0.61689775  0.05281849     0.06970
N618        N  0.98390607  0.62432033  0.91851155    -0.46840
H619        H  0.95544500  0.61757880  0.08491640     0.06950
C620        C  0.00642470  0.73812013  0.10735895     0.42650
C621        C  0.92712710  0.62384295  0.97170605    -0.06360
Co622      Co  0.96657407  0.67994901  0.03897080     0.73820
N623        N  0.03198705  0.62362476  0.08240134    -0.46550
C624        C  0.01039087  0.73988492  0.89514969     0.42920
N625        N  0.91819867  0.72878144  0.02397035    -0.46540
Co626      Co  0.04673425  0.67967426  0.04229478     0.73890
C627        C  0.09819970  0.72791692  0.02871526    -0.06870
C628        C  0.03632350  0.62320655  0.92019562    -0.06430
N629        N  0.94378709  0.71331262  0.98295142    -0.25960
N630        N  0.08927345  0.62348621  0.97637975    -0.46720
H631        H  0.06151356  0.72989104  0.90661773     0.06930
C632        C  0.97929531  0.72863871  0.08927031    -0.06850
Cl633      Cl  0.00807581  0.68047674  0.00067826    -0.49850
C634        C  0.00721637  0.60802791  0.09306755     0.42680
H635        H  0.91315121  0.73042692  0.94794856     0.06890
N636        N  0.03130358  0.72745802  0.09155802    -0.46560
C637        C  0.50681684  0.87582444  0.90486665     0.42530
N638        N  0.52056028  0.83779505  0.93312305     0.01420
C639        C  0.42003884  0.75190442  0.02421361    -0.06450
H640        H  0.42074371  0.86302663  0.04914560     0.06920
C641        C  0.53412737  0.86056326  0.07716538    -0.06800
Co642      Co  0.46646860  0.80293756  0.95797454     0.74180
N643        N  0.44370848  0.83561198  0.01418857    -0.25980
Co644      Co  0.46878737  0.80223715  0.03793848     0.74070
C645        C  0.50602089  0.87464677  0.08918682     0.42640
N646        N  0.57093059  0.83820733  0.01023554     0.01040
N647        N  0.49351050  0.83643913  0.06064009     0.01140
N648        N  0.41896674  0.75316674  0.97219196    -0.46830
H649        H  0.45504438  0.86564564  0.91229721     0.06900
N650        N  0.44291912  0.83603910  0.98370618     0.01430
N651        N  0.49499635  0.76938870  0.06213536     0.01170
C652        C  0.51003980  0.74362782  0.10245171     0.42770
N653        N  0.57021944  0.83825074  0.97975850    -0.25440
C654        C  0.48033087  0.75451152  0.90766866    -0.06360
N655        N  0.53161057  0.86039832  0.91569787    -0.46540
N656        N  0.48498374  0.75396299  0.08664713    -0.46770
C657        C  0.50777596  0.74537199  0.88989530     0.42550
N658        N  0.44294189  0.76883896  0.98305999     0.01420
N659        N  0.57303978  0.77166955  0.97943063    -0.25460
N660        N  0.49005050  0.83733957  0.93406015    -0.25950
N661        N  0.57352543  0.77114670  0.00999145     0.01060
H662        H  0.60539217  0.75627433  0.94513374     0.06950
H663        H  0.56107724  0.75515775  0.09166432     0.06980
N664        N  0.44369601  0.76894941  0.01361719    -0.26000
N665        N  0.52399841  0.83709119  0.05964458    -0.25610
N666        N  0.52166219  0.77084350  0.93077918     0.01420
C667        C  0.41303570  0.87295994  0.99742559     0.42820
C668        C  0.58762450  0.86171019  0.96936529    -0.06870
N669        N  0.52551553  0.77052573  0.06107520    -0.25610
H670        H  0.55807657  0.86637668  0.08158095     0.06970
N671        N  0.42459873  0.85796461  0.97264153    -0.46840
H672        H  0.59221100  0.86708747  0.94536740     0.06950
C673        C  0.61458523  0.74586451  0.99655832     0.42650
C674        C  0.47916881  0.86062226  0.91670966    -0.06360
Co675      Co  0.54657014  0.80428328  0.95547187     0.73820
N676        N  0.58834798  0.86060618  0.02176549    -0.46550
C677        C  0.40311737  0.74163927  0.99661453     0.42920
N678        N  0.53234239  0.75643009  0.90592261    -0.46540
Co679      Co  0.54874031  0.80395408  0.03538046     0.73890
C680        C  0.53703234  0.75442844  0.08490861    -0.06870
C681        C  0.42541630  0.85820431  0.02504280    -0.06430
N682        N  0.49109674  0.77069884  0.93182946    -0.25960
N683        N  0.48171758  0.85846959  0.07831580    -0.46720
H684        H  0.41256682  0.75174616  0.04807007     0.06930
C685        C  0.59757529  0.75581293  0.96887972    -0.06850
Cl686      Cl  0.50763948  0.80257650  0.99665799    -0.49850
C687        C  0.59932433  0.87644320  0.99730349     0.42680
H688        H  0.45632190  0.75424002  0.90064096     0.06890
N689        N  0.59799782  0.75635576  0.02092359    -0.46560
C690        C  0.59901522  0.99492757  0.88322565     0.42530
N691        N  0.57112749  0.98126768  0.84485642     0.01420
C692        C  0.47692399  0.08100809  0.76193517    -0.06450
H693        H  0.45352423  0.07678270  0.87352121     0.06920
C694        C  0.42677945  0.96290043  0.86632964    -0.06800
Co695      Co  0.54532769  0.03562469  0.81122516     0.74180
N696        N  0.48875912  0.05575030  0.84495407    -0.25980
Co697      Co  0.46533070  0.03110095  0.81088634     0.74070
C698        C  0.41406377  0.99016020  0.88138705     0.42640
N699        N  0.49493484  0.92874936  0.84365192     0.01040
N700        N  0.44299874  0.00476942  0.84420400     0.01140
N701        N  0.52885206  0.08500580  0.76348319    -0.46830
H702        H  0.59068872  0.04668433  0.87393966     0.06900
N703        N  0.51923507  0.05750867  0.84504966     0.01430
N704        N  0.44185235  0.00558902  0.77714451     0.01170
C705        C  0.40249879  0.99104219  0.74980569     0.42770
N706        N  0.52539731  0.93040263  0.84404993    -0.25440
C707        C  0.59640516  0.02301441  0.76243493    -0.06360
N708        N  0.58867207  0.97016770  0.86735727    -0.46540
N709        N  0.41751966  0.01586951  0.76161577    -0.46770
C710        C  0.61384440  0.99555569  0.75249440     0.42550
N711        N  0.51932361  0.05977539  0.77810379     0.01420
N712        N  0.52612854  0.92937941  0.77736078    -0.25460
N713        N  0.56975106  0.01175765  0.84490744    -0.25950
N714        N  0.49561747  0.92788531  0.77661430     0.01060
H715        H  0.56177577  0.89925316  0.76067955     0.06950
H716        H  0.41402553  0.93971317  0.75878408     0.06980
N717        N  0.48882274  0.05757497  0.77827328    -0.26000
N718        N  0.44444374  0.97430372  0.84358214    -0.25610
N719        N  0.57301551  0.98154158  0.77780124     0.01420
C720        C  0.50518493  0.08566773  0.88310805     0.42820
C721        C  0.53607697  0.91279162  0.86721788    -0.06870
N722        N  0.44355719  0.97508361  0.77696247    -0.25610
H723        H  0.42268872  0.93866363  0.87103277     0.06970
N724        N  0.53008326  0.07538652  0.86744739    -0.46840
H725        H  0.56016070  0.90879014  0.87275519     0.06950
C726        C  0.51067344  0.88815769  0.75008866     0.42650
C727        C  0.58679802  0.02257377  0.86843703    -0.06360
Co728      Co  0.54920666  0.95550930  0.81074290     0.73820
N729        N  0.48369574  0.91054898  0.86554147    -0.46550
C730        C  0.50348215  0.09989441  0.75255678     0.42920
N731        N  0.59757675  0.97099170  0.76291757    -0.46540
Co732      Co  0.46946711  0.95124406  0.80985995     0.73890
C733        C  0.42037114  0.96388672  0.75969070    -0.06870
C734        C  0.47769926  0.07296782  0.86826560    -0.06430
N735        N  0.57203213  0.01211396  0.77835522    -0.25960
N736        N  0.42477348  0.01531558  0.86642262    -0.46720
H737        H  0.45260176  0.08681290  0.76158386     0.06930
C738        C  0.53765906  0.90590194  0.76067646    -0.06850
Cl739      Cl  0.50734670  0.99338927  0.81019870    -0.49850
C740        C  0.50833099  0.89995656  0.88139058     0.42680
H741        H  0.60391396  0.04688659  0.76277071     0.06890
N742        N  0.48563424  0.90347494  0.76101080    -0.46560
C743        C  0.50624647  0.10926090  0.90724845     0.42530
N744        N  0.49193716  0.14659055  0.93623888     0.01420
C745        C  0.59047853  0.23010054  0.03198704    -0.06450
H746        H  0.58740650  0.11803974  0.05486320     0.06920
C747        C  0.47406702  0.12170737  0.08066231    -0.06800
Co748      Co  0.54540724  0.18055287  0.96362092     0.74180
N749        N  0.56604879  0.14667943  0.01990091    -0.25980
Co750      Co  0.54081376  0.17992539  0.04358954     0.74070
C751        C  0.50175803  0.10745275  0.09359223     0.42640
N752        N  0.43951514  0.14491594  0.01199006     0.01040
N753        N  0.51524431  0.14563053  0.06532213     0.01140
N754        N  0.59293694  0.22952741  0.98000537    -0.46830
H755        H  0.55784456  0.11893206  0.91647334     0.06900
N756        N  0.56761400  0.14679377  0.98943418     0.01430
N757        N  0.51413003  0.21269165  0.06733100     0.01170
C758        C  0.49798860  0.23928393  0.10660908     0.42770
N759        N  0.44112254  0.14552266  0.98153264    -0.25440
C760        C  0.53366750  0.23037617  0.91430840    -0.06360
N761        N  0.48125821  0.12455590  0.91783511    -0.46540
N762        N  0.52348422  0.22829212  0.09202959    -0.46770
C763        C  0.50696311  0.24009422  0.89575529     0.42550
N764        N  0.56857362  0.21388262  0.98999603     0.01420
N765        N  0.43861320  0.21209371  0.98233699    -0.25460
N766        N  0.52239563  0.14682478  0.93809203    -0.25950
N767        N  0.43690633  0.21192343  0.01284930     0.01060
H768        H  0.40790263  0.22849333  0.94706016     0.06950
H769        H  0.44718594  0.22899165  0.09389135     0.06980
N770        N  0.56698508  0.21333173  0.02050986    -0.26000
N771        N  0.48479001  0.14514807  0.06339929    -0.25610
N772        N  0.49142786  0.21360855  0.93533503     0.01420
C773        C  0.59616223  0.10898173  0.00313838     0.42820
C774        C  0.42414263  0.12224033  0.97007212    -0.06870
N775        N  0.48364992  0.21193821  0.06511832    -0.25610
H776        H  0.44997144  0.11602249  0.08437879     0.06970
N777        N  0.58564225  0.12466806  0.97838238    -0.46840
H778        H  0.42037748  0.11730853  0.94583120     0.06950
C779        C  0.39635614  0.23746136  0.99831682     0.42650
C780        C  0.53363457  0.12396254  0.92035862    -0.06360
Co781      Co  0.46558211  0.17982310  0.95858570     0.73820
N782        N  0.42187567  0.12219239  0.02245189    -0.46550
C783        C  0.60821516  0.24062635  0.00498019     0.42920
N784        N  0.48173032  0.22874864  0.91049795    -0.46540
Co785      Co  0.46093905  0.17873755  0.03851364     0.73890
C786        C  0.47151727  0.22874202  0.08813004    -0.06870
C787        C  0.58351548  0.12348317  0.03075711    -0.06430
N788        N  0.52192802  0.21355299  0.93750714    -0.25960
N789        N  0.52640511  0.12353629  0.08335552    -0.46720
H790        H  0.59717464  0.23021390  0.05608390     0.06930
C791        C  0.41458530  0.22824777  0.97115510    -0.06850
Cl792      Cl  0.50317800  0.18024336  0.00108102    -0.49850
C793        C  0.41171100  0.10686348  0.99727927     0.42680
H794        H  0.55795938  0.23099872  0.90838294     0.06890
N795        N  0.41194170  0.22641811  0.02309891    -0.46560
C796        C  0.50387904  0.89806562  0.11323743     0.42530
N797        N  0.51652512  0.92581092  0.15198470     0.01420
C798        C  0.41332104  0.01605117  0.23512703    -0.06450
H799        H  0.41865547  0.04177563  0.12416807     0.06920
C800        C  0.53091187  0.07098876  0.13200884    -0.06800
Co801      Co  0.46134781  0.95000347  0.18544291     0.74180
N802        N  0.44008009  0.00655380  0.15241945    -0.25980
Co803      Co  0.46370751  0.02998778  0.18693350     0.74070
C804        C  0.50326008  0.08331941  0.11717097     0.42640
N805        N  0.56713631  0.00294797  0.15411704     0.01040
N806        N  0.48955149  0.05352527  0.15407735     0.01140
N807        N  0.41164849  0.96402741  0.23331240    -0.46830
H808        H  0.45184523  0.90508681  0.12213351     0.06900
N809        N  0.43913631  0.97606186  0.15180803     0.01430
N810        N  0.48844893  0.05354326  0.22109087     0.01170
C811        C  0.50218489  0.09345800  0.24800857     0.42770
N812        N  0.56626833  0.97244845  0.15362968    -0.25440
C813        C  0.47423058  0.89938994  0.23425358    -0.06360
N814        N  0.52824371  0.90875505  0.12943699    -0.46540
N815        N  0.47769383  0.07794829  0.23621564    -0.46770
C816        C  0.50172516  0.88222632  0.24446626     0.42550
N817        N  0.43643752  0.97475275  0.21880118     0.01420
N818        N  0.56684796  0.97111979  0.22020805    -0.25460
N819        N  0.48601984  0.92655463  0.15165472    -0.25950
N820        N  0.56762537  0.00164779  0.22125140     0.01060
H821        H  0.59800465  0.93606989  0.23597353     0.06950
H822        H  0.55351241  0.08308856  0.23943088     0.06980
N823        N  0.43746419  0.00529901  0.21895906    -0.26000
N824        N  0.52005615  0.05271205  0.15459013    -0.25610
N825        N  0.51564191  0.92297715  0.21896228     0.01420
C826        C  0.41122911  0.99011471  0.11363177     0.42820
C827        C  0.58445594  0.96220025  0.13070424    -0.06870
N828        N  0.51899319  0.05235108  0.22143124    -0.25610
H829        H  0.55503029  0.07567500  0.12722472     0.06970
N830        N  0.42186321  0.96517665  0.12898769    -0.46840
H831        H  0.58912097  0.93822479  0.12523047     0.06950
C832        C  0.60774269  0.98722389  0.24759656     0.42650
C833        C  0.47581203  0.90951035  0.12786700    -0.06360
Co834      Co  0.54146445  0.94779604  0.18649724     0.73820
N835        N  0.58542707  0.01460842  0.13249101    -0.46550
C836        C  0.39565793  0.98859336  0.24446727     0.42920
N837        N  0.52630133  0.89853091  0.23399643    -0.46540
Co838      Co  0.54372382  0.02762652  0.18814510     0.73890
C839        C  0.52959192  0.07571848  0.23877854    -0.06870
C840        C  0.42296894  0.01762019  0.12907568    -0.06430
N841        N  0.48507677  0.92363408  0.21821272    -0.25960
N842        N  0.47847684  0.07177664  0.13211829    -0.46720
H843        H  0.40633491  0.04003709  0.23515721     0.06930
C844        C  0.59066960  0.95996267  0.23664230    -0.06850
Cl845      Cl  0.50256398  0.98884562  0.18721736    -0.49850
C846        C  0.59686454  0.99020903  0.11675733     0.42680
H847        H  0.45034402  0.89193359  0.23397866     0.06890
N848        N  0.59181616  0.01202163  0.23695729    -0.46560
C849        C  0.38889041  0.89656222  0.99591225     0.42530
N850        N  0.35097327  0.92538076  0.00922991     0.01420
C851        C  0.26834164  0.01856136  0.90828566    -0.06450
H852        H  0.37985888  0.04253728  0.91309977     0.06920
C853        C  0.37335888  0.07015163  0.02543205    -0.06800
Co854      Co  0.31764525  0.95078895  0.95451143     0.74180
N855        N  0.35130732  0.00723253  0.93392470    -0.25980
Co856      Co  0.31734739  0.03095741  0.95795868     0.74070
C857        C  0.38829663  0.08264760  0.99804279     0.42640
N858        N  0.35031425  0.00250950  0.06046619     0.01040
N859        N  0.35087971  0.05374229  0.98381177     0.01140
N860        N  0.27015322  0.96661541  0.90470893    -0.46830
H861        H  0.37976481  0.90456970  0.94409995     0.06900
N862        N  0.35157278  0.97674627  0.93247470     0.01430
N863        N  0.28375294  0.05495633  0.98298691     0.01170
C864        C  0.25708425  0.09503886  0.99669456     0.42770
N865        N  0.35036915  0.97202945  0.05917613    -0.25440
C866        C  0.26913364  0.89951296  0.96798161    -0.06360
N867        N  0.37314179  0.90747546  0.02053467    -0.46540
N868        N  0.26848099  0.07921965  0.97220816    -0.46770
C869        C  0.25921283  0.88271534  0.99579887     0.42550
N870        N  0.28461150  0.97646089  0.92993798     0.01420
N871        N  0.28375459  0.97210256  0.06051216    -0.25460
N872        N  0.35115454  0.92647404  0.97874148    -0.25950
N873        N  0.28321738  0.00265716  0.06116339     0.01060
H874        H  0.26726037  0.93764430  0.09221777     0.06950
H875        H  0.26661259  0.08500579  0.04817437     0.06980
N876        N  0.28467313  0.00698075  0.93186466    -0.26000
N877        N  0.35047478  0.05251417  0.01426451    -0.25610
N878        N  0.28379225  0.92427155  0.00892826     0.01420
C879        C  0.38982586  0.99094870  0.90473335     0.42820
C880        C  0.37340402  0.96122068  0.07683523    -0.06870
N881        N  0.28384696  0.05402549  0.01350923    -0.25610
H882        H  0.37817187  0.07443907  0.04961110     0.06970
N883        N  0.37425327  0.96593640  0.91494912    -0.46840
H884        H  0.37859216  0.93711283  0.08109566     0.06950
C885        C  0.25697411  0.98910045  0.10148422     0.42650
C886        C  0.37438489  0.90887671  0.96815312    -0.06360
Co887      Co  0.31691391  0.94817951  0.03460514     0.73820
N888        N  0.37236972  0.01364322  0.07857925    -0.46550
C889        C  0.25917976  0.99178261  0.88954342     0.42920
N890        N  0.26907273  0.89985991  0.01997558    -0.46540
Co891      Co  0.31665557  0.02806891  0.03761131     0.73890
C892        C  0.26703046  0.07780164  0.02422830    -0.06870
C893        C  0.37470402  0.01835672  0.91697774    -0.06430
N894        N  0.28463907  0.92443071  0.97834683    -0.25960
N895        N  0.37311733  0.07184196  0.97302231    -0.46720
H896        H  0.26799856  0.04281660  0.90228864     0.06930
C897        C  0.26722936  0.96146065  0.08455339    -0.06850
Cl898      Cl  0.31664921  0.98947814  0.99615623    -0.49850
C899        C  0.38790659  0.98886876  0.08937454     0.42680
H900        H  0.26989418  0.89117280  0.94439647     0.06890
N901        N  0.26785834  0.01351152  0.08529750    -0.46560
C902        C  0.62116890  0.99224447  0.09340669     0.42530
N903        N  0.65933197  0.97953880  0.06467808     0.01420
C904        C  0.74062484  0.08322134  0.97327762    -0.06450
H905        H  0.62973049  0.07803978  0.94986142     0.06920
C906        C  0.63738814  0.96591093  0.91944399    -0.06800
Co907      Co  0.69249035  0.03490890  0.04033134     0.74180
N908        N  0.65842640  0.05635976  0.98453184    -0.25980
Co909      Co  0.69255816  0.03300242  0.96035819     0.74070
C910        C  0.62226825  0.99353031  0.90757055     0.42640
N911        N  0.66062669  0.92962142  0.98660044     0.01040
N912        N  0.65936105  0.00728838  0.93709122     0.01140
N913        N  0.73974278  0.08531541  0.02528791    -0.46830
H914        H  0.63018926  0.04423414  0.08643791     0.06900
N915        N  0.65836912  0.05724633  0.01501770     0.01430
N916        N  0.72645794  0.00878218  0.93608891     0.01170
C917        C  0.75306457  0.99656291  0.89558291     0.42770
N918        N  0.66038958  0.93031141  0.01709575    -0.25440
C919        C  0.74115393  0.02137402  0.09089496    -0.06360
N920        N  0.63704904  0.96784678  0.08216345    -0.46540
N921        N  0.74157185  0.02043137  0.91218806    -0.46770
C922        C  0.75128182  0.99365697  0.10777866     0.42550
N923        N  0.72536104  0.06020245  0.01505723     0.01420
N924        N  0.72708382  0.92957369  0.01737053    -0.25460
N925        N  0.65909578  0.01005759  0.06417427    -0.25950
N926        N  0.72777729  0.92944528  0.98681318     0.01060
H927        H  0.74368165  0.89754877  0.05140498     0.06950
H928        H  0.74408368  0.94474530  0.90381354     0.06980
N929        N  0.72493113  0.05905454  0.98453763    -0.26000
N930        N  0.66008558  0.97680388  0.93752607    -0.25610
N931        N  0.72646488  0.98028004  0.06635245     0.01420
C932        C  0.62007392  0.08533201  0.00167739     0.42820
C933        C  0.63727149  0.91239492  0.02734695    -0.06870
N934        N  0.72670773  0.97822447  0.93616920    -0.25610
H935        H  0.63282857  0.94180737  0.91446400     0.06970
N936        N  0.63581958  0.07460995  0.02633719    -0.46840
H937        H  0.63184045  0.90771003  0.05130969     0.06950
C938        C  0.75459066  0.88924728  0.99992505     0.42650
C939        C  0.63571286  0.02026911  0.08177968    -0.06360
Co940      Co  0.69361587  0.95472651  0.04166247     0.73820
N941        N  0.63863096  0.91176672  0.97493717    -0.46550
C942        C  0.75017178  0.10129263  0.00035870     0.42920
N943        N  0.74120705  0.96932286  0.09084970    -0.46540
Co944      Co  0.69413518  0.95322814  0.96161357     0.73890
C945        C  0.74352517  0.96840165  0.91197726    -0.06870
C946        C  0.63497276  0.07357202  0.97391337    -0.06430
N947        N  0.72561473  0.01086569  0.06614272    -0.25960
N948        N  0.63715399  0.01836233  0.91914586    -0.46720
H949        H  0.74015680  0.08974732  0.94919718     0.06930
C950        C  0.74385280  0.90556995  0.02772633    -0.06850
Cl951      Cl  0.69369621  0.99397453  0.00101836    -0.49850
C952        C  0.62292869  0.90042640  0.99933109     0.42680
H953        H  0.74019774  0.04505534  0.09887245     0.06890
N954        N  0.74354490  0.90566676  0.97568946    -0.46560
C955        C  0.00676550  0.87547991  0.59327620     0.42530
N956        N  0.99375828  0.83711604  0.56503760     0.01420
C957        C  0.09613362  0.75484812  0.47260704    -0.06450
H958        H  0.09066961  0.86663210  0.44837896     0.06920
C959        C  0.97859473  0.85993750  0.42063333    -0.06800
Co960      Co  0.04877232  0.80416317  0.53948223     0.74180
N961        N  0.06964371  0.83790967  0.48340259    -0.25980
Co962      Co  0.04592619  0.80375777  0.45962039     0.74070
C963        C  0.00615392  0.87489291  0.40836059     0.42640
N964        N  0.94286948  0.83624733  0.48798751     0.01040
N965        N  0.02005037  0.83713717  0.43688679     0.01140
N966        N  0.09809957  0.75630888  0.52461632    -0.46830
H967        H  0.05868227  0.86682556  0.58519086     0.06900
N968        N  0.07076389  0.83819803  0.51387125     0.01430
N969        N  0.02102104  0.77001789  0.43564897     0.01170
C970        C  0.00760339  0.74338445  0.39541567     0.42770
N971        N  0.94388213  0.83614283  0.51847997    -0.25440
C972        C  0.03715753  0.75480482  0.58911841    -0.06360
N973        N  0.98225351  0.85937282  0.58269049    -0.46540
N974        N  0.03197831  0.75472565  0.41148375    -0.46770
C975        C  0.01032898  0.74471029  0.60726354     0.42550
N976        N  0.07344519  0.77117224  0.51411588     0.01420
N977        N  0.94318949  0.76950929  0.51838882    -0.25460
N978        N  0.02425276  0.83756061  0.56379629    -0.25950
N979        N  0.94256133  0.76913472  0.48781142     0.01060
H980        H  0.91126977  0.75305288  0.55268996     0.06950
H981        H  0.95605836  0.75326957  0.40488434     0.06980
N982        N  0.07224707  0.77127878  0.48359403    -0.26000
N983        N  0.98956735  0.83681489  0.43807942    -0.25610
N984        N  0.99495894  0.77009748  0.56686969     0.01420
C985        C  0.09843313  0.87658876  0.50006709     0.42820
C986        C  0.92601397  0.85908679  0.52922148    -0.06870
N987        N  0.99046435  0.77013715  0.43634857    -0.25610
H988        H  0.95444471  0.86495548  0.41636551     0.06970
N989        N  0.08808110  0.86092536  0.52491898    -0.46840
H990        H  0.92161602  0.86424591  0.55330651     0.06950
C991        C  0.90209710  0.74294671  0.50125308     0.42650
C992        C  0.03465748  0.86109697  0.58107604    -0.06360
Co993      Co  0.96872449  0.80284914  0.54251277     0.73820
N994        N  0.92475139  0.85829111  0.47682049    -0.46550
C995        C  0.11382969  0.74520152  0.49991814     0.42920
N996        N  0.98513839  0.75516944  0.59177968    -0.46540
Co997      Co  0.96608351  0.80279001  0.46238678     0.73890
C998        C  0.97992433  0.75345520  0.41236868    -0.06870
C999        C  0.08655367  0.86143137  0.47249892    -0.06430
N1000       N  0.02549256  0.77090486  0.56537979    -0.25960
N1001       N  0.03103100  0.85949357  0.41907465    -0.46720
H1002       H  0.10311493  0.75464913  0.44859597     0.06930
C1003       C  0.91907381  0.75298905  0.52892261    -0.06850
Cl1004     Cl  0.00736824  0.80289108  0.50101225    -0.49850
C1005       C  0.91363111  0.87369180  0.50155017     0.42680
H1006       H  0.06129500  0.75520201  0.59568158     0.06890
N1007       N  0.91836304  0.75387293  0.47690705    -0.46560
C1008       C  0.88808734  0.99052251  0.40863623     0.42530
N1009       N  0.85025115  0.97676522  0.43712329     0.01420
C1010       C  0.76809235  0.07806907  0.53065715    -0.06450
H1011       H  0.88015594  0.07517919  0.55218817     0.06920
C1012       C  0.87607703  0.96299344  0.58125297    -0.06800
Co1013     Co  0.81642265  0.03106707  0.46294062     0.74180
N1014       N  0.85102039  0.05311387  0.51806852    -0.25980
Co1015     Co  0.81787956  0.02867275  0.54258527     0.74070
C1016       C  0.89050778  0.99108378  0.59306018     0.42640
N1017       N  0.85198994  0.92617037  0.51415859     0.01040
N1018       N  0.85220022  0.00368261  0.56468970     0.01140
N1019       N  0.76772760  0.07937444  0.47862325    -0.46830
H1020       H  0.87824693  0.04225891  0.41643822     0.06900
N1021       N  0.85050025  0.05400196  0.48761105     0.01430
N1022       N  0.78515214  0.00311954  0.56720237     0.01170
C1023       C  0.75965855  0.98953306  0.60804720     0.42770
N1024       N  0.85129337  0.92693749  0.48366796    -0.25440
C1025       C  0.76669193  0.01838272  0.41431918    -0.06360
N1026       N  0.87269023  0.96570211  0.41947563    -0.46540
N1027       N  0.77004704  0.01396819  0.59149962    -0.46770
C1028       C  0.75709490  0.99147733  0.39594999     0.42550
N1029       N  0.78335599  0.05510599  0.48886594     0.01420
N1030       N  0.78471279  0.92481569  0.48488727    -0.25460
N1031       N  0.84993460  0.00726126  0.43816435    -0.25950
N1032       N  0.78492405  0.92423039  0.51547437     0.01060
H1033       H  0.76842255  0.89265393  0.45083247     0.06950
H1034       H  0.77052661  0.93811665  0.59888177     0.06980
N1035       N  0.78440085  0.05424812  0.51935936    -0.26000
N1036       N  0.85253143  0.97319018  0.56385097    -0.25610
N1037       N  0.78322412  0.97640191  0.43609053     0.01420
C1038       C  0.88860049  0.08269969  0.50017308     0.42820
C1039       C  0.87432923  0.90931373  0.47265975    -0.06870
N1040       N  0.78593909  0.97256606  0.56676634    -0.25610
H1041       H  0.88164224  0.93902984  0.58585364     0.06970
N1042       N  0.87253560  0.07170711  0.47585116    -0.46840
H1043       H  0.87908712  0.90474047  0.44852468     0.06950
C1044       C  0.75914692  0.88329304  0.50243423     0.42650
C1045       C  0.87307169  0.01813992  0.42065692    -0.06360
Co1046     Co  0.81699577  0.95097931  0.46010555     0.73820
N1047       N  0.87450604  0.90850121  0.52506474    -0.46550
C1048       C  0.75723823  0.09532818  0.50349334     0.42920
N1049       N  0.76826742  0.96641282  0.41121457    -0.46540
Co1050     Co  0.81855954  0.94873134  0.54026340     0.73890
C1051       C  0.77001147  0.96190108  0.59117607    -0.06870
C1052       C  0.87441185  0.07072613  0.52824123    -0.06430
N1053       N  0.78328843  0.00692277  0.43777130    -0.25960
N1054       N  0.87444636  0.01540909  0.58215714    -0.46720
H1055       H  0.76865661  0.08500838  0.55464641     0.06930
C1056       C  0.76850712  0.90038177  0.47461552    -0.06850
Cl1057     Cl  0.81667704  0.98978363  0.50146197    -0.49850
C1058       C  0.88963204  0.89738823  0.50018122     0.42680
H1059       H  0.76643870  0.04262442  0.40843650     0.06890
N1060       N  0.77029609  0.89975134  0.52662486    -0.46560
C1061       C  0.12187764  0.90068665  0.50109520     0.42530
N1062       N  0.15918894  0.92937698  0.48645148     0.01420
C1063       C  0.24557668  0.02294042  0.58359030    -0.06450
H1064       H  0.13264951  0.04556722  0.58322986     0.06920
C1065       C  0.13556453  0.07323163  0.47031096    -0.06800
Co1066     Co  0.19477625  0.95482875  0.53959814     0.74180
N1067       N  0.16135003  0.01087387  0.56144550    -0.25980
Co1068     Co  0.19432329  0.03476295  0.53573959     0.74070
C1069       C  0.12147074  0.08547596  0.49830647     0.42640
N1070       N  0.15772092  0.00577299  0.43430056     0.01040
N1071       N  0.15977163  0.05707838  0.51099835     0.01140
N1072       N  0.24458911  0.97096343  0.58682425    -0.46830
H1073       H  0.13310201  0.90834381  0.55257822     0.06900
N1074       N  0.16162290  0.98039527  0.56292193     0.01430
N1075       N  0.22680940  0.05868671  0.50907785     0.01170
C1076       C  0.25198274  0.09941080  0.49439509     0.42770
N1077       N  0.15773779  0.97530555  0.43586976    -0.25440
C1078       C  0.24376827  0.90460917  0.52490287    -0.06360
N1079       N  0.13659708  0.91161525  0.47594303    -0.46540
N1080       N  0.24197463  0.08327129  0.51923715    -0.46770
C1081       C  0.25284946  0.88743810  0.49699533     0.42550
N1082       N  0.22868206  0.98077855  0.56251638     0.01420
N1083       N  0.22430337  0.97492921  0.43290279    -0.25460
N1084       N  0.16034170  0.93033206  0.51690688    -0.25950
N1085       N  0.22445074  0.00537387  0.43042985     0.01060
H1086       H  0.24011805  0.93822379  0.40423695     0.06950
H1087       H  0.24065637  0.08915683  0.44332523     0.06980
N1088       N  0.22821143  0.01128735  0.56073943    -0.26000
N1089       N  0.15911031  0.05588542  0.48051570    -0.25610
N1090       N  0.22619399  0.92779034  0.48423083     0.01420
C1091       C  0.12396143  0.99371501  0.59190658     0.42820
C1092       C  0.13456229  0.96438424  0.41838905    -0.06870
N1093       N  0.22564351  0.05765492  0.47854150    -0.25610
H1094       H  0.12966029  0.07735371  0.44635303     0.06970
N1095       N  0.13968857  0.96911238  0.58106593    -0.46840
H1096       H  0.12951771  0.94024521  0.41410062     0.06950
C1097       C  0.24846352  0.98892753  0.38954639     0.42650
C1098       C  0.13751896  0.91275839  0.52835639    -0.06360
Co1099     Co  0.19211143  0.95163968  0.45978858     0.73820
N1100       N  0.13560774  0.01676875  0.41618878    -0.46550
C1101       C  0.25605298  0.99614260  0.60160140     0.42920
N1102       N  0.24102821  0.90351150  0.47294180    -0.46540
Co1103     Co  0.19209905  0.03142391  0.45565173     0.73890
C1104       C  0.24144562  0.08187503  0.46723244    -0.06870
C1105       C  0.13825754  0.02150273  0.57923670    -0.06430
N1106       N  0.22693248  0.92866177  0.51476081    -0.25960
N1107       N  0.13770447  0.07483796  0.52268279    -0.46720
H1108       H  0.24608702  0.04717488  0.58973671     0.06930
C1109       C  0.23986201  0.96267551  0.40918743    -0.06850
Cl1110     Cl  0.19381789  0.99318220  0.49767624    -0.49850
C1111       C  0.11997980  0.99195789  0.40563587     0.42680
H1112       H  0.24465597  0.89713612  0.54874837     0.06890
N1113       N  0.23817587  0.01454643  0.40456413    -0.46560
C1114       C  0.91230553  0.10653009  0.49813288     0.42530
N1115       N  0.94052042  0.14484011  0.51111566     0.01420
C1116       C  0.03289099  0.22794035  0.40995707    -0.06450
H1117       H  0.05723594  0.11727322  0.41341535     0.06920
C1118       C  0.08530290  0.12407270  0.52765315    -0.06800
Co1119     Co  0.96568647  0.17843827  0.45647442     0.74180
N1120       N  0.02222834  0.14525192  0.43567729    -0.25980
Co1121     Co  0.04561151  0.17957778  0.46021332     0.74070
C1122       C  0.09754496  0.10914433  0.50002937     0.42640
N1123       N  0.01716251  0.14672143  0.56274492     0.01040
N1124       N  0.06835950  0.14644773  0.48624490     0.01140
N1125       N  0.98098204  0.22566528  0.40668478    -0.46830
H1126       H  0.91994897  0.11548839  0.44619934     0.06900
N1127       N  0.99173354  0.14485857  0.43453431     0.01430
N1128       N  0.06919319  0.21347455  0.48563113     0.01170
C1129       C  0.10919048  0.24015246  0.49984616     0.42770
N1130       N  0.98667467  0.14619490  0.56145705    -0.25440
C1131       C  0.91510463  0.22726213  0.46828766    -0.06360
N1132       N  0.92302151  0.12252947  0.52260182    -0.46540
N1133       N  0.09366183  0.22866596  0.47517770    -0.46770
C1134       C  0.89710929  0.23718440  0.49532486     0.42550
N1135       N  0.99104167  0.21170785  0.43206550     0.01420
N1136       N  0.98523417  0.21296113  0.56168921    -0.25460
N1137       N  0.94157121  0.14461381  0.48063975    -0.25950
N1138       N  0.01570543  0.21361169  0.56386459     0.01060
H1139       H  0.94867017  0.23034271  0.58980490     0.06950
H1140       H  0.09835584  0.23087894  0.55119148     0.06980
N1141       N  0.02157197  0.21195236  0.43391201    -0.26000
N1142       N  0.06738264  0.14693119  0.51673205    -0.25610
N1143       N  0.93765375  0.21178917  0.51020849     0.01420
C1144       C  0.00543099  0.10730893  0.40558501     0.42820
C1145       C  0.97639556  0.12295359  0.57924076    -0.06870
N1146       N  0.06784372  0.21359835  0.51616228    -0.25610
H1147       H  0.08973175  0.11910651  0.55177464     0.06970
N1148       N  0.98069247  0.12263248  0.41662101    -0.46840
H1149       H  0.95240654  0.11719597  0.58349246     0.06950
C1150       C  0.99950134  0.23980275  0.60344444     0.42650
C1151       C  0.92426663  0.12107168  0.47020712    -0.06360
Co1152     Co  0.96225926  0.17924272  0.53628475     0.73820
N1153       N  0.02878630  0.12490382  0.58077583    -0.46550
C1154       C  0.00597899  0.23651186  0.39127990     0.42920
N1155       N  0.91278992  0.22660537  0.52028938    -0.46540
Co1156     Co  0.04223110  0.18057633  0.54018570     0.73890
C1157       C  0.09148923  0.23043409  0.52714661    -0.06870
C1158       C  0.03311078  0.12222453  0.41789901    -0.06430
N1159       N  0.93909017  0.21124746  0.47970001    -0.25960
N1160       N  0.08634923  0.12427695  0.47524114    -0.46720
H1161       H  0.05700121  0.22811441  0.40320055     0.06930
C1162       C  0.97308845  0.22977722  0.58462469    -0.06850
Cl1163     Cl  0.00394776  0.17994292  0.49827990    -0.49850
C1164       C  0.00442533  0.10892063  0.59170015     0.42680
H1165       H  0.90834463  0.22704313  0.44421398     0.06890
N1166       N  0.02502554  0.22900717  0.58870698    -0.46560
C1167       C  0.00718939  0.89856383  0.38442187     0.42530
N1168       N  0.99249476  0.92657598  0.34659728     0.01420
C1169       C  0.08959621  0.01922796  0.25871367    -0.06450
H1170       H  0.08813764  0.04468630  0.37108766     0.06920
C1171       C  0.97560770  0.07087510  0.36781270    -0.06800
Co1172     Co  0.04546264  0.95213670  0.31075190     0.74180
N1173       N  0.06692125  0.00921920  0.34286780    -0.25980
Co1174     Co  0.04113919  0.03223376  0.30936315     0.74070
C1175       C  0.00361280  0.08365297  0.38157529     0.42640
N1176       N  0.94013356  0.00253486  0.34680702     0.01040
N1177       N  0.01628622  0.05497783  0.34345964     0.01140
N1178       N  0.09239632  0.96727447  0.26066752    -0.46830
H1179       H  0.05870547  0.90665822  0.37342464     0.06900
N1180       N  0.06843055  0.97873389  0.34339042     0.01430
N1181       N  0.01393607  0.05529491  0.27642375     0.01170
C1182       C  0.99737381  0.09396495  0.24918766     0.42770
N1183       N  0.94179109  0.97207841  0.34721740    -0.25440
C1184       C  0.03158285  0.90090730  0.26268535    -0.06360
N1185       N  0.98203877  0.90902418  0.36935117    -0.46540
N1186       N  0.02304472  0.07964261  0.26015149    -0.46770
C1187       C  0.00400094  0.88309808  0.25389959     0.42550
N1188       N  0.06814093  0.97756047  0.27631837     0.01420
N1189       N  0.93836163  0.97053452  0.28077557    -0.25460
N1190       N  0.02295757  0.92792339  0.34563857    -0.25950
N1191       N  0.93632802  0.00099160  0.27989360     0.01060
H1192       H  0.90875355  0.93406526  0.26575438     0.06950
H1193       H  0.94674437  0.08145272  0.26037136     0.06980
N1194       N  0.06646474  0.00809490  0.27611084    -0.26000
N1195       N  0.98581926  0.05332212  0.34437855    -0.25610
N1196       N  0.99044846  0.92376683  0.27969096     0.01420
C1197       C  0.09685049  0.99309367  0.38110618     0.42820
C1198       C  0.92474255  0.96141199  0.37077492    -0.06870
N1199       N  0.98346232  0.05311865  0.27760843    -0.25610
H1200       H  0.95164306  0.07467691  0.37395975     0.06970
N1201       N  0.08626911  0.96807228  0.36586462    -0.46840
H1202       H  0.92075892  0.93733466  0.37630681     0.06950
C1203       C  0.89581426  0.98483274  0.25510237     0.42650
C1204       C  0.03444937  0.91076727  0.36879005    -0.06360
Co1205     Co  0.96566524  0.94800974  0.31328408     0.73820
N1206       N  0.92234720  0.01378092  0.36904184    -0.46550
C1207       C  0.10740420  0.99205757  0.24875648     0.42920
N1208       N  0.97960736  0.89897556  0.26534840    -0.46540
Co1209     Co  0.96114849  0.02772288  0.31187540     0.73890
C1210       C  0.97108348  0.07569828  0.26043215    -0.06870
C1211       C  0.08438132  0.02047937  0.36592821    -0.06430
N1212       N  0.02098745  0.92508821  0.27903748    -0.25960
N1213       N  0.02794907  0.07310615  0.36524509    -0.46720
H1214       H  0.09608406  0.04337042  0.25789679     0.06930
C1215       C  0.91452512  0.95834988  0.26519246    -0.06850
Cl1216     Cl  0.00334662  0.99002879  0.31083351    -0.49850
C1217       C  0.91217046  0.98913369  0.38515072     0.42680
H1218       H  0.05556452  0.89377991  0.26203525     0.06890
N1219       N  0.91109185  0.01033235  0.26519129    -0.46560
C1220       C  0.00520063  0.89967441  0.61673719     0.42530
N1221       N  0.01916243  0.92893107  0.65395340     0.01420
C1222       C  0.91920203  0.02239079  0.73810028    -0.06450
H1223       H  0.92187786  0.04521412  0.62583191     0.06920
C1224       C  0.03462206  0.07325491  0.62997203    -0.06800
Co1225     Co  0.96546276  0.95500050  0.68850894     0.74180
N1226       N  0.94373836  0.01082058  0.65480836    -0.25980
Co1227     Co  0.96874827  0.03491213  0.68812470     0.74070
C1228       C  0.00657118  0.08535949  0.61568936     0.42640
N1229       N  0.07077831  0.00561741  0.65296408     0.01040
N1230       N  0.99388051  0.05702204  0.65397148     0.01140
N1231       N  0.91794142  0.97035430  0.73769403    -0.46830
H1232       H  0.95348375  0.90761147  0.62687423     0.06900
N1233       N  0.94270823  0.98033048  0.65499227     0.01430
N1234       N  0.99516176  0.05913721  0.72084542     0.01170
C1235       C  0.01060701  0.09953282  0.74621672     0.42770
N1236       N  0.06963188  0.97511622  0.65319242    -0.25440
C1237       C  0.97789200  0.90597775  0.73803584    -0.06360
N1238       N  0.03006976  0.91082225  0.63182642    -0.46540
N1239       N  0.98539833  0.08411929  0.73572936    -0.46770
C1240       C  0.00476504  0.88736535  0.74726098     0.42550
N1241       N  0.94209323  0.98084365  0.72208010     0.01420
N1242       N  0.07135342  0.97502004  0.71992356    -0.25460
N1243       N  0.98867784  0.93003459  0.65449448    -0.25950
N1244       N  0.07382812  0.00548646  0.71964346     0.01060
H1245       H  0.09997928  0.93869477  0.73720007     0.06950
H1246       H  0.06159247  0.08755900  0.73617716     0.06980
N1247       N  0.94303474  0.01138824  0.72150516    -0.26000
N1248       N  0.02438378  0.05585577  0.65350710    -0.25610
N1249       N  0.01983895  0.92725546  0.72088444     0.01420
C1250       C  0.91411256  0.99322734  0.61698620     0.42820
C1251       C  0.08741752  0.96434000  0.63015040    -0.06870
N1252       N  0.02570590  0.05743505  0.72017311    -0.25610
H1253       H  0.05860166  0.07746385  0.62415314     0.06970
N1254       N  0.92503950  0.96879167  0.63283031    -0.46840
H1255       H  0.09190487  0.94023942  0.62509718     0.06950
C1256       C  0.11449264  0.98953021  0.74425042     0.42650
C1257       C  0.97763887  0.91209066  0.63168723    -0.06360
Co1258     Co  0.04516225  0.95133610  0.68729825     0.73820
N1259       N  0.08880186  0.01675229  0.63087782    -0.46550
C1260       C  0.90205735  0.99501911  0.74865734     0.42920
N1261       N  0.02981860  0.90239476  0.73580146    -0.46540
Co1262     Co  0.04894901  0.03132509  0.68690026     0.73890
C1263       C  0.03740475  0.08118412  0.73629397    -0.06870
C1264       C  0.92614822  0.02121116  0.63146806    -0.06430
N1265       N  0.98937643  0.92923034  0.72118568    -0.25960
N1266       N  0.98222584  0.07462920  0.63182320    -0.46720
H1267       H  0.91184535  0.04629245  0.73783523     0.06930
C1268       C  0.09483966  0.96312045  0.73612551    -0.06850
Cl1269     Cl  0.00710694  0.99315566  0.68819431    -0.49850
C1270       C  0.09982553  0.99205284  0.61544651     0.42680
H1271       H  0.95355810  0.90051070  0.73901998     0.06890
N1272       N  0.09956100  0.01493828  0.73347788    -0.46560
C1273       C  0.99827141  0.24880227  0.23479643     0.00640
C1274       C  0.99910276  0.22647396  0.25717728     0.00640
C1275       C  0.74065460  0.98844168  0.24061198     0.00640
C1276       C  0.76281593  0.98760705  0.26285267     0.00640
C1277       C  0.00847858  0.72799146  0.24030783     0.00640
C1278       C  0.00841964  0.75023488  0.26251220     0.00640
C1279       C  0.24016386  0.99054829  0.25620821     0.00640
C1280       C  0.26279011  0.98884077  0.23448174     0.00640
C1281       C  0.26442792  0.25431098  0.49996073     0.00640
C1282       C  0.24209534  0.23226340  0.49841424     0.00640
C1283       C  0.74207205  0.25034444  0.49799718     0.00640
C1284       C  0.76417119  0.22807525  0.49641180     0.00640
C1285       C  0.26884409  0.73240196  0.49740565     0.00640
C1286       C  0.24650038  0.75443928  0.49712227     0.00640
C1287       C  0.26973913  0.99318575  0.75663742     0.00640
C1288       C  0.24779929  0.99366803  0.73419272     0.00640
C1289       C  0.24123556  0.25006552  0.99732744     0.00640
C1290       C  0.26345717  0.22790676  0.99678301     0.00640
C1291       C  0.24817946  0.72740475  0.99836719     0.00640
C1292       C  0.27028392  0.74969204  0.99696630     0.00640
C1293       C  0.50609445  0.72733592  0.25761009     0.00640
C1294       C  0.50487613  0.74946565  0.23536717     0.00640
C1295       C  0.49980940  0.25006825  0.26143443     0.00640
C1296       C  0.49818743  0.22808450  0.23871111     0.00640
C1297       C  0.50177199  0.25514160  0.74062574     0.00640
C1298       C  0.50366689  0.23285901  0.76273558     0.00640
C1299       C  0.00510422  0.25462017  0.75841690     0.00640
C1300       C  0.00636500  0.23245351  0.73621696     0.00640
C1301       C  0.76332837  0.25641748  0.00064828     0.00640
C1302       C  0.74113873  0.23437368  0.00376065     0.00640
C1303       C  0.26702817  0.48824153  0.25972269     0.00640
C1304       C  0.24514736  0.48602235  0.23723340     0.00640
C1305       C  0.74501164  0.48793419  0.25985060     0.00640
C1306       C  0.76723992  0.48990660  0.23778535     0.00640
C1307       C  0.26783738  0.49116588  0.73802957     0.00640
C1308       C  0.24513497  0.49099284  0.75976522     0.00640
C1309       C  0.01175273  0.73239628  0.76233847     0.00640
C1310       C  0.01095584  0.75449507  0.74009998     0.00640
C1311       C  0.74668895  0.99564571  0.76263034     0.00640
C1312       C  0.76911753  0.99389329  0.74072673     0.00640
C1313       C  0.74749425  0.75636166  0.99788851     0.00640
C1314       C  0.76965985  0.73409944  0.99858878     0.00640
C1315       C  0.74480374  0.49627062  0.73787469     0.00640
C1316       C  0.76689832  0.49759261  0.76016474     0.00640
C1317       C  0.74689979  0.72805852  0.50147059     0.00640
C1318       C  0.76903281  0.75032152  0.50324287     0.00640
C1319       C  0.50836376  0.73317400  0.73482515     0.00640
C1320       C  0.50933009  0.75536224  0.75702358     0.00640
C1321       C  0.81803052  0.01969669  0.75894304    -0.21230
C1322       C  0.80260145  0.99300001  0.74869125    -0.09270
C1323       C  0.81976573  0.96609560  0.74278177     0.29580
C1324       C  0.85198017  0.96637749  0.74536238    -0.21230
C1325       C  0.86790154  0.99371585  0.75320114    -0.09290
C1326       C  0.85045103  0.02015156  0.76119455     0.29590
F1327       F  0.86459387  0.04671792  0.77015596    -0.19810
H1328       H  0.80505175  0.04058307  0.76379683     0.17960
H1329       H  0.86451279  0.94551736  0.73940588     0.17960
F1330       F  0.80540588  0.93976655  0.73339521    -0.19800
C1331       C  0.03760966  0.15103584  0.74390457    -0.21230
C1332       C  0.01055920  0.13383801  0.74994135    -0.09270
C1333       C  0.98270148  0.15003894  0.75516321     0.29580
C1334       C  0.98165106  0.18234273  0.75215121    -0.21230
C1335       C  0.00832848  0.19902084  0.74412168    -0.09290
C1336       C  0.03646358  0.18322171  0.74077624     0.29590
F1337       F  0.06266369  0.19880526  0.73321425    -0.19810
H1338       H  0.05951872  0.13969259  0.73992824     0.17960
H1339       H  0.95975855  0.19421157  0.75479327     0.17960
F1340       F  0.95617803  0.13458414  0.76183986    -0.19800
C1341       C  0.16517071  0.01510634  0.75609888    -0.21230
C1342       C  0.14891608  0.98859935  0.74637291    -0.09270
C1343       C  0.16608171  0.96317077  0.73489744     0.29580
C1344       C  0.19824901  0.96475582  0.73265649    -0.21230
C1345       C  0.21421482  0.99151620  0.74137518    -0.09290
C1346       C  0.19752824  0.01665560  0.75355806     0.29590
F1347       F  0.21223260  0.04329205  0.76128746    -0.19810
H1348       H  0.15266795  0.03512926  0.76451362     0.17960
H1349       H  0.21070947  0.94532495  0.72287815     0.17960
F1350       F  0.15215259  0.93747848  0.72350876    -0.19800
C1351       C  0.03358470  0.83785287  0.75555574    -0.21230
C1352       C  0.00500586  0.85313422  0.75195245    -0.09270
C1353       C  0.97800652  0.83488383  0.74854605     0.29580
C1354       C  0.98014677  0.80267843  0.74639426    -0.21230
C1355       C  0.00889196  0.78789008  0.74786081    -0.09290
C1356       C  0.03557077  0.80555022  0.75346169     0.29590
F1357       F  0.06371890  0.79175208  0.75524884    -0.19810
H1358       H  0.05471001  0.85103489  0.75844275     0.17960
H1359       H  0.95934866  0.78927237  0.74233664     0.17960
F1360       F  0.94956689  0.84769504  0.74549669    -0.19800
C1361       C  0.19026696  0.96333982  0.24541469    -0.21230
C1362       C  0.20682919  0.99114442  0.24773283    -0.09270
C1363       C  0.19084263  0.01930747  0.24565236     0.29580
C1364       C  0.15850122  0.01958612  0.24332083    -0.21230
C1365       C  0.14150359  0.99172997  0.24338391    -0.09290
C1366       C  0.15795741  0.96352347  0.24293407     0.29590
F1367       F  0.14282268  0.93600715  0.24188093    -0.19810
H1368       H  0.20226762  0.94141360  0.24696581     0.17960
H1369       H  0.14687619  0.04172243  0.24312933     0.17960
F1370       F  0.20637097  0.04654938  0.24753800    -0.19800
C1371       C  0.03060697  0.83278452  0.24220528    -0.21230
C1372       C  0.00336895  0.84886163  0.25000717    -0.09270
C1373       C  0.97683541  0.83157570  0.25814615     0.29580
C1374       C  0.97842269  0.79935306  0.26064182    -0.21230
C1375       C  0.00613599  0.78365039  0.25468108    -0.09290
C1376       C  0.03205811  0.80047758  0.24460170     0.29590
F1377       F  0.05929206  0.78592552  0.23891117    -0.19810
H1378       H  0.05127213  0.84527342  0.23557445     0.17960
H1379       H  0.95824167  0.78665711  0.26840889     0.17960
F1380       F  0.94980119  0.84573339  0.26562219    -0.19800
C1381       C  0.84565441  0.01329476  0.25036268    -0.21230
C1382       C  0.86155610  0.98483853  0.25056189    -0.09270
C1383       C  0.84392682  0.95724007  0.25049847     0.29580
C1384       C  0.81162670  0.95839842  0.25289528    -0.21230
C1385       C  0.79625524  0.98682868  0.25499174    -0.09290
C1386       C  0.81336822  0.01432552  0.25271649     0.29590
F1387       F  0.79899174  0.04220657  0.25422216    -0.19810
H1388       H  0.85830100  0.03492157  0.25000254     0.17960
H1389       H  0.79863213  0.93700044  0.25427550     0.17960
F1390       F  0.85752805  0.92900855  0.24939287    -0.19800
C1391       C  0.96905873  0.14478445  0.24894842    -0.21230
C1392       C  0.99653840  0.12799038  0.24363803    -0.09270
C1393       C  0.02398887  0.14459910  0.23767998     0.29580
C1394       C  0.02430826  0.17697652  0.23967744    -0.21230
C1395       C  0.99743133  0.19323193  0.24801933    -0.09290
C1396       C  0.96958011  0.17703721  0.25149466     0.29590
F1397       F  0.94320936  0.19233450  0.25911912    -0.19810
H1398       H  0.94737779  0.13311390  0.25319919     0.17960
H1399       H  0.04598938  0.18922096  0.23685415     0.17960
F1400       F  0.05091405  0.12952637  0.23176347    -0.19800
C1401       C  0.97534141  0.23525070  0.68803543    -0.21230
C1402       C  0.00368495  0.24014246  0.70285925    -0.09270
C1403       C  0.02952507  0.24888868  0.68521894     0.29580
C1404       C  0.02724349  0.25097845  0.65294773    -0.21230
C1405       C  0.99925910  0.24420819  0.63767463    -0.09290
C1406       C  0.97292011  0.23729828  0.65588114     0.29590
F1407       F  0.94515011  0.23040919  0.64307085    -0.19810
H1408       H  0.95522798  0.22847664  0.70138789     0.17960
H1409       H  0.04784590  0.25636842  0.63974823     0.17960
F1410       F  0.05736376  0.25364581  0.69890414    -0.19800
C1411       C  0.81405389  0.23781113  0.52383124    -0.21230
C1412       C  0.79763614  0.23599504  0.49592794    -0.09270
C1413       C  0.81366220  0.23918542  0.46789203     0.29580
C1414       C  0.84596830  0.24192392  0.46780586    -0.21230
C1415       C  0.86286270  0.24146106  0.49570278    -0.09290
C1416       C  0.84631143  0.24086178  0.52384167     0.29590
F1417       F  0.86129679  0.24168304  0.55143496    -0.19810
H1418       H  0.80191621  0.23578675  0.54564783     0.17960
H1419       H  0.85768615  0.24306724  0.44574620     0.17960
F1420       F  0.79823733  0.23841945  0.44055531    -0.19800
C1421       C  0.16041665  0.24631429  0.52700223    -0.21230
C1422       C  0.14337279  0.24496999  0.49921365    -0.09270
C1423       C  0.15978629  0.24382327  0.47100297     0.29580
C1424       C  0.19207374  0.24116961  0.47089773    -0.21230
C1425       C  0.20865901  0.24023531  0.49873409    -0.09290
C1426       C  0.19275550  0.24384089  0.52678892     0.29590
F1427       F  0.20837134  0.24331287  0.55404184    -0.19810
H1428       H  0.14879682  0.24776858  0.54909800     0.17960
H1429       H  0.20408515  0.23874486  0.44905976     0.17960
F1430       F  0.14465037  0.24359941  0.44347902    -0.19800
C1431       C  0.98660392  0.25634426  0.34047319    -0.21230
C1432       C  0.00639671  0.23677342  0.35704267    -0.09270
C1433       C  0.02388381  0.21471322  0.34072374     0.29580
C1434       C  0.02259299  0.21336693  0.30850574    -0.21230
C1435       C  0.00259024  0.23264985  0.29143036    -0.09290
C1436       C  0.98415230  0.25397540  0.30814916     0.29590
F1437       F  0.96167381  0.27056937  0.29419595    -0.19810
H1438       H  0.97191157  0.27251066  0.35274221     0.17960
H1439       H  0.03658962  0.19610347  0.29705709     0.17960
F1440       F  0.04056712  0.19282111  0.35590362    -0.19800
C1441       C  0.25674345  0.02385602  0.65273721    -0.21230
C1442       C  0.26108261  0.99635433  0.63571750    -0.09270
C1443       C  0.26556360  0.96848269  0.65210374     0.29580
C1444       C  0.26314860  0.96791412  0.68445103    -0.21230
C1445       C  0.25622773  0.99503717  0.70090273    -0.09290
C1446       C  0.25399379  0.02315047  0.68494633     0.29590
F1447       F  0.24757954  0.04973603  0.70042824    -0.19810
H1448       H  0.25358705  0.04581475  0.64126898     0.17960
H1449       H  0.26514585  0.94607514  0.69653871     0.17960
F1450       F  0.27068121  0.94150778  0.63682398    -0.19800
C1451       C  0.25670060  0.15119669  0.46808157    -0.21230
C1452       C  0.25586027  0.13367602  0.49555874    -0.09270
C1453       C  0.25432750  0.14957008  0.52407764     0.29580
C1454       C  0.25096067  0.18174383  0.52477979    -0.21230
C1455       C  0.24989213  0.19881854  0.49728749    -0.09290
C1456       C  0.25368977  0.18349148  0.46891876     0.29590
F1457       F  0.25307740  0.19961948  0.44198856    -0.19810
H1458       H  0.25834438  0.13994219  0.44579660     0.17960
H1459       H  0.24815234  0.19327731  0.54684146     0.17960
F1460       F  0.25442089  0.13402320  0.55135920    -0.19800
C1461       C  0.26429614  0.83651803  0.52260324    -0.21230
C1462       C  0.25750352  0.85330863  0.49553866    -0.09270
C1463       C  0.25105751  0.83670556  0.46810225     0.29580
C1464       C  0.24916540  0.80440140  0.46853896    -0.21230
C1465       C  0.25398701  0.78796746  0.49602240    -0.09290
C1466       C  0.26240770  0.80414059  0.52291657     0.29590
F1467       F  0.26694209  0.78878130  0.54990605    -0.19810
H1468       H  0.26965851  0.84843470  0.54395276     0.17960
H1469       H  0.24271957  0.79222391  0.44759601     0.17960
F1470       F  0.24465903  0.85156225  0.44118265    -0.19800
C1471       C  0.25553833  0.01601667  0.33886731    -0.21230
C1472       C  0.25173992  0.98805820  0.35514823    -0.09270
C1473       C  0.24726786  0.96054856  0.33785409     0.29580
C1474       C  0.24512850  0.96155225  0.30561334    -0.21230
C1475       C  0.24733523  0.98965584  0.28979070    -0.09290
C1476       C  0.25316364  0.01689522  0.30654156     0.29590
F1477       F  0.25511122  0.04454741  0.29182871    -0.19810
H1478       H  0.25898139  0.03751343  0.35127880     0.17960
H1479       H  0.24055188  0.94037923  0.29297638     0.17960
F1480       F  0.24321225  0.93269519  0.35159822    -0.19800
C1481       C  0.75359366  0.14428949  0.47310178    -0.21230
C1482       C  0.75215233  0.12944060  0.50205061    -0.09270
C1483       C  0.75017141  0.14800798  0.52891721     0.29580
C1484       C  0.75241425  0.18029378  0.52673983    -0.21230
C1485       C  0.75633332  0.19463912  0.49794344    -0.09290
C1486       C  0.75593647  0.17648022  0.47103802     0.29590
F1487       F  0.75909986  0.18969588  0.44276722    -0.19810
H1488       H  0.75466566  0.13090190  0.45195230     0.17960
H1489       H  0.75238753  0.19408347  0.54767998     0.17960
F1490       F  0.74727741  0.13528492  0.55742295    -0.19800
C1491       C  0.75397191  0.01715780  0.31154628    -0.21230
C1492       C  0.75505443  0.98861048  0.29631636    -0.09270
C1493       C  0.75245907  0.96129584  0.31366406     0.29580
C1494       C  0.75082051  0.96262023  0.34602700    -0.21230
C1495       C  0.75202308  0.99119187  0.36172496    -0.09290
C1496       C  0.75235693  0.01863061  0.34383753     0.29590
F1497       F  0.75261028  0.04704548  0.35707821    -0.19810
H1498       H  0.75567182  0.03843102  0.29842068     0.17960
H1499       H  0.75018564  0.94112931  0.35886684     0.17960
F1500       F  0.75297339  0.93330809  0.29941016    -0.19800
C1501       C  0.76366811  0.01928092  0.65737459    -0.21230
C1502       C  0.75583595  0.99150607  0.64219907    -0.09270
C1503       C  0.74847477  0.96536154  0.66030263     0.29580
C1504       C  0.75123823  0.96657084  0.69261730    -0.21230
C1505       C  0.76140087  0.99372584  0.70725362    -0.09290
C1506       C  0.76673100  0.02031325  0.68950301     0.29590
F1507       F  0.77602577  0.04702843  0.70320477    -0.19810
H1508       H  0.76916862  0.03992579  0.64431077     0.17960
H1509       H  0.74667202  0.94598166  0.70614279     0.17960
F1510       F  0.73953872  0.93840557  0.64690229    -0.19800
C1511       C  0.76547272  0.83333662  0.53085201    -0.21230
C1512       C  0.75555715  0.84905371  0.50409336    -0.09270
C1513       C  0.74626290  0.83143498  0.47823068     0.29580
C1514       C  0.74913599  0.79908662  0.47851716    -0.21230
C1515       C  0.76107828  0.78381769  0.50458315    -0.09290
C1516       C  0.76847183  0.80113761  0.53102743     0.29590
F1517       F  0.77969555  0.78698923  0.55671364    -0.19810
H1518       H  0.77260028  0.84604148  0.55124442     0.17960
H1519       H  0.74330862  0.78604671  0.45792645     0.17960
F1520       F  0.73533121  0.84539451  0.45233604    -0.19800
C1521       C  0.16429371  0.73660392  0.47239345    -0.21230
C1522       C  0.14803270  0.74085818  0.50032301    -0.09270
C1523       C  0.16517347  0.74535927  0.52778100     0.29580
C1524       C  0.19741314  0.74822439  0.52668268    -0.21230
C1525       C  0.21317279  0.74625013  0.49844773    -0.09290
C1526       C  0.19655563  0.73947718  0.47139622     0.29590
F1527       F  0.21132464  0.73736151  0.44377132    -0.19810
H1528       H  0.15203629  0.73253450  0.45095680     0.17960
H1529       H  0.21003528  0.75321532  0.54775533     0.17960
F1530       F  0.15082255  0.74882540  0.55549758    -0.19800
C1531       C  0.03628374  0.74696912  0.34534599    -0.21230
C1532       C  0.00913691  0.73862426  0.36132234    -0.09270
C1533       C  0.98290300  0.72986646  0.34396127     0.29580
C1534       C  0.98321466  0.73203236  0.31157791    -0.21230
C1535       C  0.00971457  0.74253227  0.29601860    -0.09290
C1536       C  0.03652468  0.74913502  0.31309168     0.29590
F1537       F  0.06260337  0.75900007  0.29864644    -0.19810
H1538       H  0.05697651  0.75358130  0.35784976     0.17960
H1539       H  0.96233429  0.72685670  0.29872594     0.17960
F1540       F  0.95662733  0.72022435  0.35816926    -0.19800
C1541       C  0.03857157  0.74135378  0.65807343    -0.21230
C1542       C  0.01044358  0.74061591  0.64152829    -0.09270
C1543       C  0.98250464  0.74030344  0.65842623     0.29580
C1544       C  0.98282887  0.74337275  0.69069307    -0.21230
C1545       C  0.01089513  0.74640094  0.70669936    -0.09290
C1546       C  0.03880495  0.74445586  0.69030180     0.29590
F1547       F  0.06628351  0.74704310  0.70532305    -0.19810
H1548       H  0.06054662  0.74103825  0.64615722     0.17960
H1549       H  0.96110761  0.74456112  0.70309799     0.17960
F1550       F  0.95477430  0.73855631  0.64376006    -0.19800
C1551       C  0.85138922  0.72990152  0.52655149    -0.21230
C1552       C  0.86789932  0.73882098  0.49993634    -0.09270
C1553       C  0.85102693  0.74779089  0.47341168     0.29580
C1554       C  0.81877283  0.74989710  0.47444064    -0.21230
C1555       C  0.80256552  0.74272205  0.50154055    -0.09290
C1556       C  0.81898103  0.73179828  0.52739042     0.29590
F1557       F  0.80390163  0.72478948  0.55399991    -0.19810
H1558       H  0.86361651  0.72271229  0.54718807     0.17960
H1559       H  0.80641402  0.75834531  0.45433405     0.17960
F1560       F  0.86557774  0.75657870  0.44700840    -0.19800
C1561       C  0.75245036  0.15129042  0.02953724    -0.21230
C1562       C  0.75419746  0.13561859  0.00102032    -0.09270
C1563       C  0.75581524  0.15348073  0.97363545     0.29580
C1564       C  0.75289428  0.18573115  0.97487245    -0.21230
C1565       C  0.74886586  0.20086723  0.00322215    -0.09290
C1566       C  0.74975563  0.18355509  0.03066361     0.29590
F1567       F  0.74715794  0.19773222  0.05854655    -0.19810
H1568       H  0.75173070  0.13848451  0.05103684     0.17960
H1569       H  0.75272415  0.19888770  0.95354249     0.17960
F1570       F  0.75917677  0.14013256  0.94546295    -0.19800
C1571       C  0.74994131  0.83946161  0.97088108    -0.21230
C1572       C  0.75928446  0.85517981  0.99786525    -0.09270
C1573       C  0.76896269  0.83759237  0.02357730     0.29580
C1574       C  0.76695369  0.80517811  0.02293799    -0.21230
C1575       C  0.75531889  0.78987453  0.99672975    -0.09290
C1576       C  0.74767696  0.80721174  0.97040264     0.29590
F1577       F  0.73673538  0.79298564  0.94460860    -0.19810
H1578       H  0.74255404  0.85215663  0.95059678     0.17960
H1579       H  0.77300778  0.79210694  0.04342541     0.17960
F1580       F  0.77930537  0.85163865  0.04968971    -0.19800
C1581       C  0.74515734  0.02392717  0.81267577    -0.21230
C1582       C  0.75391712  0.99743573  0.79619749    -0.09270
C1583       C  0.76597067  0.97193498  0.81237749     0.29580
C1584       C  0.76765903  0.97252231  0.84477221    -0.21230
C1585       C  0.75727346  0.99847499  0.86149524    -0.09290
C1586       C  0.74692801  0.02466670  0.84491725     0.29590
F1587       F  0.73642732  0.05032358  0.85971303    -0.19810
H1588       H  0.73577207  0.04374776  0.80055305     0.17960
H1589       H  0.77579639  0.95213639  0.85681968     0.17960
F1590       F  0.77420534  0.94578739  0.79704985    -0.19800
C1591       C  0.75772903  0.01630956  0.19266510    -0.21230
C1592       C  0.74867340  0.98870761  0.20715084    -0.09270
C1593       C  0.74452992  0.96201493  0.18916997     0.29580
C1594       C  0.74772928  0.96336539  0.15699454    -0.21230
C1595       C  0.75471452  0.99149228  0.14203283    -0.09290
C1596       C  0.76092427  0.01775358  0.16042166     0.29590
F1597       F  0.76915175  0.04508394  0.14738197    -0.19810
H1598       H  0.76111809  0.03708841  0.20623206     0.17960
H1599       H  0.74310776  0.94262258  0.14371131     0.17960
F1600       F  0.73623721  0.93488541  0.20265050    -0.19800
C1601       C  0.24650680  0.83089263  0.97247562    -0.21230
C1602       C  0.25692003  0.84841500  0.99789156    -0.09270
C1603       C  0.26876937  0.83262965  0.02395851     0.29580
C1604       C  0.27175087  0.80048661  0.02366239    -0.21230
C1605       C  0.26254780  0.78320980  0.99787082    -0.09290
C1606       C  0.24911812  0.79849043  0.97248839     0.29590
F1607       F  0.24014300  0.78227881  0.94712494    -0.19810
H1608       H  0.23732757  0.84234965  0.95219064     0.17960
H1609       H  0.28219328  0.78902655  0.04336371     0.17960
F1610       F  0.27945446  0.84816233  0.04909943    -0.19800
C1611       C  0.24792376  0.14590315  0.02337227    -0.21230
C1612       C  0.25194218  0.12913185  0.99571309    -0.09270
C1613       C  0.25535757  0.14577452  0.96780054     0.29580
C1614       C  0.25738065  0.17810773  0.96814130    -0.21230
C1615       C  0.25567831  0.19444854  0.99607855    -0.09290
C1616       C  0.24999245  0.17824370  0.02361420     0.29590
F1617       F  0.24822946  0.19356230  0.05097860    -0.19810
H1618       H  0.24471284  0.13403907  0.04514995     0.17960
H1619       H  0.26155045  0.19034830  0.94669395     0.17960
F1620       F  0.25858055  0.13089172  0.94032223    -0.19800
C1621       C  0.25954736  0.02048865  0.83904724    -0.21230
C1622       C  0.25567804  0.99243496  0.85521200    -0.09270
C1623       C  0.25274873  0.96485280  0.83795025     0.29580
C1624       C  0.25560257  0.96531645  0.80559617    -0.21230
C1625       C  0.26164030  0.99315588  0.79002820    -0.09290
C1626       C  0.26302526  0.02079161  0.80693942     0.29590
F1627       F  0.26902305  0.04803749  0.79251412    -0.19810
H1628       H  0.26161795  0.04224640  0.85111389     0.17960
H1629       H  0.25440753  0.94380296  0.79280989     0.17960
F1630       F  0.24846609  0.93727885  0.85235678    -0.19800
C1631       C  0.24516852  0.96349318  0.15226778    -0.21230
C1632       C  0.25235192  0.99051695  0.13558539    -0.09270
C1633       C  0.25915622  0.01783092  0.15225754     0.29580
C1634       C  0.26096553  0.01729746  0.18453810    -0.21230
C1635       C  0.25564491  0.98986668  0.20089297    -0.09290
C1636       C  0.24685361  0.96310676  0.18464558     0.29590
F1637       F  0.24158731  0.93619347  0.19991240    -0.19810
H1638       H  0.23954468  0.94225117  0.14024465     0.17960
H1639       H  0.26772383  0.03810891  0.19679527     0.17960
F1640       F  0.26601737  0.04469546  0.13750519    -0.19800
C1641       C  0.48557125  0.14475988  0.26967332    -0.21230
C1642       C  0.50216541  0.12765027  0.24772588    -0.09270
C1643       C  0.51638727  0.14333540  0.22315182     0.29580
C1644       C  0.51594521  0.17550007  0.22184722    -0.21230
C1645       C  0.49970283  0.19338982  0.24382544    -0.09290
C1646       C  0.48366439  0.17719725  0.26746618     0.29590
F1647       F  0.46401831  0.19174274  0.28693122    -0.19810
H1648       H  0.47308177  0.13289695  0.28786004     0.17960
H1649       H  0.52791546  0.18617278  0.20274885     0.17960
F1650       F  0.52942190  0.12752982  0.19929383    -0.19800
C1651       C  0.47561988  0.83063474  0.25129724    -0.21230
C1652       C  0.50308213  0.84804443  0.24878914    -0.09270
C1653       C  0.53146257  0.83205379  0.24612302     0.29580
C1654       C  0.53187348  0.79983659  0.24303807    -0.21230
C1655       C  0.50424950  0.78288671  0.24331724    -0.09290
C1656       C  0.47617628  0.79832296  0.24859755     0.29590
F1657       F  0.44918098  0.78230512  0.24973457    -0.19810
H1658       H  0.45348562  0.84198950  0.25402347     0.17960
H1659       H  0.55373896  0.78813167  0.23939659     0.17960
F1660       F  0.55877998  0.84752155  0.24479878    -0.19800
C1661       C  0.34520450  0.96005972  0.24258109    -0.21230
C1662       C  0.36139959  0.98770707  0.24865233    -0.09270
C1663       C  0.34413221  0.01484191  0.25443480     0.29580
C1664       C  0.31188852  0.01477938  0.25110535    -0.21230
C1665       C  0.29613634  0.98760364  0.24298795    -0.09290
C1666       C  0.31292180  0.95999644  0.23970929     0.29590
F1667       F  0.29822479  0.93321090  0.23241620    -0.19810
H1668       H  0.35760189  0.93868977  0.23841288     0.17960
H1669       H  0.29935084  0.03630170  0.25355011     0.17960
F1670       F  0.35823222  0.04177671  0.26223473    -0.19800
C1671       C  0.65787096  0.01617765  0.24664351    -0.21230
C1672       C  0.64186013  0.98840311  0.25257198    -0.09270
C1673       C  0.65925301  0.96151422  0.25902458     0.29580
C1674       C  0.69161778  0.96199283  0.25674678    -0.21230
C1675       C  0.70716894  0.98923377  0.24842147    -0.09290
C1676       C  0.69016090  0.01656995  0.24440085     0.29590
F1677       F  0.70472003  0.04340830  0.23703087    -0.19810
H1678       H  0.64536440  0.03737271  0.24198630     0.17960
H1679       H  0.70446031  0.94075217  0.26013235     0.17960
F1680       F  0.64514960  0.93448040  0.26646852    -0.19800
C1681       C  0.65921947  0.24768855  0.03234563    -0.21230
C1682       C  0.64230498  0.24607892  0.00450855    -0.09270
C1683       C  0.65883789  0.24538618  0.97634630     0.29580
C1684       C  0.69115470  0.24318616  0.97634550    -0.21230
C1685       C  0.70767157  0.24234641  0.00422939    -0.09290
C1686       C  0.69161566  0.24583076  0.03223120     0.29590
F1687       F  0.70712147  0.24608580  0.05952779    -0.19810
H1688       H  0.64746125  0.24895711  0.05438505     0.17960
H1689       H  0.70327770  0.24085186  0.95454381     0.17960
F1690       F  0.64382169  0.24507792  0.94875620    -0.19800
C1691       C  0.34557899  0.24403469  0.97061450    -0.21230
C1692       C  0.36207553  0.24143792  0.99861261    -0.09270
C1693       C  0.34513236  0.23839420  0.02639517     0.29580
C1694       C  0.31286936  0.23549081  0.02571001    -0.21230
C1695       C  0.29687377  0.23589799  0.99753390    -0.09290
C1696       C  0.31330051  0.24108950  0.97003199     0.29590
F1697       F  0.29827544  0.24179968  0.94246071    -0.19810
H1698       H  0.35763201  0.24691042  0.94889467     0.17960
H1699       H  0.30042242  0.23175526  0.04712773     0.17960
F1700       F  0.35970862  0.23653895  0.05415798    -0.19800
C1701       C  0.53448611  0.23851002  0.84451445    -0.21230
C1702       C  0.50737366  0.24463151  0.86158547    -0.09270
C1703       C  0.47978351  0.25068890  0.84528037     0.29580
C1704       C  0.47898067  0.24840500  0.81293371    -0.21230
C1705       C  0.50569590  0.24049023  0.79624438    -0.09290
C1706       C  0.53361872  0.23623218  0.81224213     0.29590
F1707       F  0.55982111  0.22846411  0.79676085    -0.19810
H1708       H  0.55617567  0.23374734  0.85598677     0.17960
H1709       H  0.45714707  0.25129248  0.80107600     0.17960
F1710       F  0.45322412  0.25738830  0.86066015    -0.19800
C1711       C  0.46929467  0.24086491  0.15714650    -0.21230
C1712       C  0.49726302  0.24434215  0.14070810    -0.09270
C1713       C  0.52493492  0.24794171  0.15767424     0.29580
C1714       C  0.52476847  0.24539848  0.18998486    -0.21230
C1715       C  0.49724266  0.23841774  0.20576658    -0.09290
C1716       C  0.46933835  0.23744723  0.18930877     0.29590
F1717       F  0.44232774  0.23149731  0.20420427    -0.19810
H1718       H  0.44745676  0.23867239  0.14519791     0.17960
H1719       H  0.54646655  0.24642478  0.20250564     0.17960
F1720       F  0.55243982  0.25186649  0.14301608    -0.19800
C1721       C  0.66507958  0.02143556  0.74257927    -0.21230
C1722       C  0.64811784  0.99430895  0.74882298    -0.09270
C1723       C  0.66457016  0.96687088  0.75563761     0.29580
C1724       C  0.69676503  0.96738241  0.75863763    -0.21230
C1725       C  0.71331978  0.99486540  0.75430857    -0.09290
C1726       C  0.69744944  0.02173038  0.74523357     0.29590
F1727       F  0.71308038  0.04857600  0.74059509    -0.19810
H1728       H  0.65325522  0.04276048  0.73689933     0.17960
H1729       H  0.70877975  0.94647216  0.76548963     0.17960
F1730       F  0.64961485  0.93984054  0.76135616    -0.19800
C1731       C  0.35135489  0.96360606  0.74604258    -0.21230
C1732       C  0.36842294  0.99134968  0.74456674    -0.09270
C1733       C  0.35209511  0.01958229  0.74263761     0.29580
C1734       C  0.31974377  0.02001371  0.74483777    -0.21230
C1735       C  0.30320610  0.99242493  0.74896824    -0.09290
C1736       C  0.31909286  0.96414441  0.74851426     0.29590
F1737       F  0.30347895  0.93708700  0.75187039    -0.19810
H1738       H  0.36284166  0.94142865  0.74700847     0.17960
H1739       H  0.30769614  0.04197303  0.74462377     0.17960
F1740       F  0.36739113  0.04691976  0.74021959    -0.19800
C1741       C  0.47495927  0.15062834  0.75414284    -0.21230
C1742       C  0.50266441  0.13418653  0.74886615    -0.09270
C1743       C  0.53016180  0.15115545  0.74438427     0.29580
C1744       C  0.53019168  0.18346391  0.74740563    -0.21230
C1745       C  0.50284352  0.19940491  0.75470363    -0.09290
C1746       C  0.47509393  0.18283844  0.75730538     0.29590
F1747       F  0.44832037  0.19771087  0.76433865    -0.19810
H1748       H  0.45326894  0.13869520  0.75752233     0.17960
H1749       H  0.55181085  0.19590300  0.74526651     0.17960
F1750       F  0.55728445  0.13646504  0.73841684    -0.19800
C1751       C  0.53817496  0.83712382  0.74443119    -0.21230
C1752       C  0.51028951  0.85404896  0.74492876    -0.09270
C1753       C  0.48208408  0.83754978  0.74492692     0.29580
C1754       C  0.48199400  0.80525123  0.74728882    -0.21230
C1755       C  0.50985774  0.78878432  0.74917235    -0.09290
C1756       C  0.53798066  0.80478915  0.74668855     0.29590
F1757       F  0.56526176  0.78926345  0.74796518    -0.19810
H1758       H  0.56028320  0.84882177  0.74383424     0.17960
H1759       H  0.46011300  0.79313436  0.74889248     0.17960
F1760       F  0.45450772  0.85259781  0.74435765    -0.19800
C1761       C  0.35283523  0.74591808  0.96846734    -0.21230
C1762       C  0.36899363  0.73706384  0.99533047    -0.09270
C1763       C  0.35180893  0.72820926  0.02163808     0.29580
C1764       C  0.31942958  0.73070411  0.02166104    -0.21230
C1765       C  0.30376960  0.74187849  0.99550593    -0.09290
C1766       C  0.32062573  0.74859374  0.96862727     0.29590
F1767       F  0.30597667  0.75894663  0.94284560    -0.19810
H1768       H  0.36518567  0.75259970  0.94773498     0.17960
H1769       H  0.30666635  0.72525221  0.04251954     0.17960
F1770       F  0.36620112  0.71818304  0.04766808    -0.19800
C1771       C  0.66442040  0.75263051  0.02509010    -0.21230
C1772       C  0.64882057  0.74256033  0.99829649    -0.09270
C1773       C  0.66651022  0.73340097  0.97246895     0.29580
C1774       C  0.69883737  0.73645126  0.97284833    -0.21230
C1775       C  0.71397913  0.74851244  0.99894947    -0.09290
C1776       C  0.69659313  0.75584252  0.02534149     0.29590
F1777       F  0.71066891  0.76722332  0.05102871    -0.19810
H1778       H  0.65164114  0.75970738  0.04543936     0.17960
H1779       H  0.71192300  0.73068508  0.95230311     0.17960
F1780       F  0.65262004  0.72241747  0.94653692    -0.19800
C1781       C  0.53454289  0.73801717  0.18704040    -0.21230
C1782       C  0.50597039  0.74173708  0.20188808    -0.09270
C1783       C  0.47876242  0.74150234  0.18417760     0.29580
C1784       C  0.48030545  0.73965240  0.15190612    -0.21230
C1785       C  0.50903552  0.73836941  0.13657528    -0.09290
C1786       C  0.53619979  0.73613224  0.15470828     0.29590
F1787       F  0.56451922  0.73329449  0.14152843    -0.19810
H1788       H  0.55571373  0.73785975  0.20048191     0.17960
H1789       H  0.45894749  0.74088880  0.13886648     0.17960
F1790       F  0.45071490  0.74432118  0.19800065    -0.19800
C1791       C  0.53687442  0.74615547  0.80702073    -0.21230
C1792       C  0.50902130  0.74744140  0.79045342    -0.09270
C1793       C  0.48094476  0.74371247  0.80627497     0.29580
C1794       C  0.48071910  0.74059363  0.83852152    -0.21230
C1795       C  0.50851216  0.74150815  0.85560785    -0.09290
C1796       C  0.53674985  0.74299728  0.83925764     0.29590
F1797       F  0.56426745  0.74292557  0.85442318    -0.19810
H1798       H  0.55873827  0.74860585  0.79504684     0.17960
H1799       H  0.45859378  0.73889339  0.85005281     0.17960
F1800       F  0.45368309  0.74455460  0.79067150    -0.19800
C1801       C  0.85190611  0.74893003  0.97201759    -0.21230
C1802       C  0.86851866  0.74541609  0.99986529    -0.09270
C1803       C  0.85168971  0.74272449  0.02772555     0.29580
C1804       C  0.81936765  0.74059432  0.02720985    -0.21230
C1805       C  0.80316463  0.74179601  0.99915507    -0.09290
C1806       C  0.81952397  0.74708266  0.97163337     0.29590
F1807       F  0.80431559  0.74882093  0.94421150    -0.19810
H1808       H  0.86390926  0.75170193  0.95024938     0.17960
H1809       H  0.80698799  0.73685263  0.04866353     0.17960
F1810       F  0.86639833  0.74040590  0.05538111    -0.19800
C1811       C  0.16699799  0.75046233  0.02382387    -0.21230
C1812       C  0.14929754  0.73987945  0.99859775    -0.09270
C1813       C  0.16490611  0.72791465  0.97247479     0.29580
C1814       C  0.19706505  0.72530180  0.97238575    -0.21230
C1815       C  0.21456635  0.73478704  0.99791861    -0.09290
C1816       C  0.19943186  0.74804354  0.02349701     0.29590
F1817       F  0.21583009  0.75709281  0.04871216    -0.19810
H1818       H  0.15566840  0.75964828  0.04418908     0.17960
H1819       H  0.20835559  0.71490871  0.95256854     0.17960
F1820       F  0.14921515  0.71676337  0.94763673    -0.19800
C1821       C  0.03864033  0.74546580  0.84463215    -0.21230
C1822       C  0.01044289  0.74479043  0.86100720    -0.09270
C1823       C  0.98257264  0.74440747  0.84395597     0.29580
C1824       C  0.98315776  0.74211342  0.81162761    -0.21230
C1825       C  0.01138448  0.74033897  0.79575395    -0.09290
C1826       C  0.03914021  0.74290864  0.81237025     0.29590
F1827       F  0.06678603  0.74132668  0.79755165    -0.19810
H1828       H  0.06052803  0.74634701  0.85670369     0.17960
H1829       H  0.96155677  0.74038113  0.79904170     0.17960
F1830       F  0.95472342  0.74457953  0.85848378    -0.19800
C1831       C  0.97905678  0.74121124  0.15874939    -0.21230
C1832       C  0.00686222  0.74185215  0.14167193    -0.09270
C1833       C  0.03512524  0.74173672  0.15803247     0.29580
C1834       C  0.03542832  0.73843898  0.19024181    -0.21230
C1835       C  0.00769857  0.73586241  0.20685464    -0.09290
C1836       C  0.97945647  0.73808044  0.19101014     0.29590
F1837       F  0.95227993  0.73578557  0.20659808    -0.19810
H1838       H  0.95686669  0.74170511  0.14721239     0.17960
H1839       H  0.05740938  0.73683947  0.20213091     0.17960
F1840       F  0.06259385  0.74330629  0.14287954    -0.19800
C1841       C  0.81277073  0.23599805  0.02355855    -0.21230
C1842       C  0.79678170  0.24841224  0.99815620    -0.09270
C1843       C  0.81335202  0.25594050  0.97126491     0.29580
C1844       C  0.84554488  0.25268508  0.97043426    -0.21230
C1845       C  0.86196963  0.24225722  0.99656488    -0.09290
C1846       C  0.84506048  0.23277608  0.02279850     0.29590
F1847       F  0.85969637  0.22133132  0.04809731    -0.19810
H1848       H  0.80038395  0.23007052  0.04448672     0.17960
H1849       H  0.85771651  0.25996536  0.94979156     0.17960
F1850       F  0.79849545  0.26742876  0.94609499    -0.19800
C1851       C  0.03215135  0.24472755  0.80854538    -0.21230
C1852       C  0.00449100  0.24655914  0.79175528    -0.09270
C1853       C  0.97617664  0.24340109  0.80729586     0.29580
C1854       C  0.97553830  0.24032154  0.83950095    -0.21230
C1855       C  0.00313810  0.24090592  0.85683563    -0.09290
C1856       C  0.03160727  0.24183620  0.84079627     0.29590
F1857       F  0.05895693  0.24162851  0.85626528    -0.19810
H1858       H  0.05416976  0.24676238  0.79676622     0.17960
H1859       H  0.95326989  0.23904855  0.85081387     0.17960
F1860       F  0.94907794  0.24472747  0.79145007    -0.19800
C1861       C  0.15965374  0.23962908  0.96736174    -0.21230
C1862       C  0.14252215  0.23766635  0.99504707    -0.09270
C1863       C  0.15882753  0.23536084  0.02323685     0.29580
C1864       C  0.19116433  0.23778228  0.02375231    -0.21230
C1865       C  0.20779852  0.24218101  0.99626047    -0.09290
C1866       C  0.19194111  0.24211324  0.96797023     0.29590
F1867       F  0.20758032  0.24598883  0.94101404    -0.19810
H1868       H  0.14819676  0.24090221  0.94518750     0.17960
H1869       H  0.20311359  0.23751752  0.04574846     0.17960
F1870       F  0.14351642  0.23234576  0.05048739    -0.19800
C1871       C  0.97340730  0.23755708  0.15124721    -0.21230
C1872       C  0.00220865  0.23615594  0.13602679    -0.09270
C1873       C  0.02920175  0.23350869  0.15426911     0.29580
C1874       C  0.02750613  0.23633983  0.18650574    -0.21230
C1875       C  0.99893562  0.24047526  0.20130176    -0.09290
C1876       C  0.97172864  0.23939827  0.18355721     0.29590
F1877       F  0.94356401  0.24111399  0.19726754    -0.19810
H1878       H  0.95210535  0.23867468  0.13808278     0.17960
H1879       H  0.04867343  0.23634076  0.19992544     0.17960
F1880       F  0.05741670  0.22929717  0.14123839    -0.19800
C1881       C  0.85014596  0.46420443  0.25035527    -0.21230
C1882       C  0.86597372  0.49275770  0.25044849    -0.09270
C1883       C  0.84825077  0.52024497  0.25061048     0.29580
C1884       C  0.81605883  0.51898244  0.24768388    -0.21230
C1885       C  0.80068263  0.49054409  0.24564959    -0.09290
C1886       C  0.81780311  0.46307658  0.24800477     0.29590
F1887       F  0.80337807  0.43520717  0.24645924    -0.19810
H1888       H  0.86289135  0.44263367  0.25058879     0.17960
H1889       H  0.80316255  0.54038736  0.24607524     0.17960
F1890       F  0.86165198  0.54853737  0.25230988    -0.19800
C1891       C  0.19535991  0.50964740  0.25629833    -0.21230
C1892       C  0.21148525  0.48400282  0.24443224    -0.09270
C1893       C  0.19479753  0.45744430  0.23603817     0.29580
C1894       C  0.16260053  0.45682806  0.23864672    -0.21230
C1895       C  0.14614178  0.48288523  0.24926246    -0.09290
C1896       C  0.16298369  0.50907115  0.25890047     0.29590
F1897       F  0.14807412  0.53453259  0.26969154    -0.19810
H1898       H  0.20766095  0.53062595  0.26216431     0.17960
H1899       H  0.15068174  0.43635381  0.23064670     0.17960
F1900       F  0.20949567  0.43240036  0.22409966    -0.19800
C1901       C  0.03771455  0.64619386  0.25176656    -0.21230
C1902       C  0.00983209  0.62926931  0.25274089    -0.09270
C1903       C  0.98167704  0.64578873  0.25397255     0.29580
C1904       C  0.98148922  0.67809615  0.25145177    -0.21230
C1905       C  0.00925081  0.69455392  0.24818590    -0.09290
C1906       C  0.03743273  0.67851138  0.24933497     0.29590
F1907       F  0.06463741  0.69398355  0.24660256    -0.19810
H1908       H  0.05982498  0.63453134  0.25130306     0.17960
H1909       H  0.95956372  0.69020835  0.25083257     0.17960
F1910       F  0.95417857  0.63071966  0.25600367    -0.19800
C1911       C  0.02768370  0.29782419  0.24534327    -0.21230
C1912       C  0.99927357  0.28253772  0.24154218    -0.09270
C1913       C  0.97202010  0.30016807  0.23997274     0.29580
C1914       C  0.97303040  0.33228039  0.24279804    -0.21230
C1915       C  0.00141649  0.34798241  0.24543443    -0.09290
C1916       C  0.02887023  0.33028696  0.24704776     0.29590
F1917       F  0.05692815  0.34428867  0.24904784    -0.19810
H1918       H  0.04900816  0.28466767  0.24573831     0.17960
H1919       H  0.95140179  0.34467233  0.24160674     0.17960
F1920       F  0.94410436  0.28629629  0.23625948    -0.19800
C1921       C  0.25994862  0.46273705  0.84140431    -0.21230
C1922       C  0.25658379  0.49019554  0.85863316    -0.09270
C1923       C  0.25311018  0.51840614  0.84246803     0.29580
C1924       C  0.25101281  0.51864492  0.81016493    -0.21230
C1925       C  0.25239740  0.49097851  0.79334743    -0.09290
C1926       C  0.25757196  0.46305469  0.80909613     0.29590
F1927       F  0.25870635  0.43588910  0.79335656    -0.19810
H1928       H  0.26298235  0.44072927  0.85289455     0.17960
H1929       H  0.24714924  0.54037300  0.79832711     0.17960
F1930       F  0.24999732  0.54566919  0.85777966    -0.19800
C1931       C  0.26497354  0.46489275  0.15417743    -0.21230
C1932       C  0.25811645  0.49276084  0.13879177    -0.09270
C1933       C  0.25086119  0.51910954  0.15687921     0.29580
C1934       C  0.24846079  0.51677276  0.18899947    -0.21230
C1935       C  0.25338947  0.48853033  0.20394426    -0.09290
C1936       C  0.26263210  0.46271414  0.18644517     0.29590
F1937       F  0.26760233  0.43496753  0.20021755    -0.19810
H1938       H  0.27064373  0.44430426  0.14105572     0.17960
H1939       H  0.24132389  0.53685461  0.20222417     0.17960
F1940       F  0.24386184  0.54678670  0.14396719    -0.19800
C1941       C  0.26661401  0.64548638  0.97279901    -0.21230
C1942       C  0.25984427  0.62874060  0.99990718    -0.09270
C1943       C  0.25373832  0.64535912  0.02739355     0.29580
C1944       C  0.25162132  0.67761751  0.02688206    -0.21230
C1945       C  0.25624078  0.69400422  0.99935733    -0.09290
C1946       C  0.26486064  0.67788477  0.97249507     0.29590
F1947       F  0.26960001  0.69331849  0.94557114    -0.19810
H1948       H  0.27182921  0.63350696  0.95144140     0.17960
H1949       H  0.24511131  0.68982828  0.04778996     0.17960
F1950       F  0.24773492  0.63055096  0.05442484    -0.19800
C1951       C  0.25259834  0.33136072  0.02793658    -0.21230
C1952       C  0.25582181  0.34856742  0.00042117    -0.09270
C1953       C  0.25799178  0.33235782  0.97215793     0.29580
C1954       C  0.25457516  0.30011470  0.97138893    -0.21230
C1955       C  0.24922224  0.28346886  0.99869801    -0.09290
C1956       C  0.24909992  0.29918026  0.02707178     0.29590
F1957       F  0.24434710  0.28352077  0.05386769    -0.19810
H1958       H  0.25123785  0.34270956  0.05015776     0.17960
H1959       H  0.25495954  0.28825023  0.94933667     0.17960
F1960       F  0.26202580  0.34772365  0.94507585    -0.19800
C1961       C  0.16353220  0.51939648  0.74550734    -0.21230
C1962       C  0.14640855  0.49171700  0.74719221    -0.09270
C1963       C  0.16273517  0.46342283  0.74859190     0.29580
C1964       C  0.19511900  0.46322541  0.75075763    -0.21230
C1965       C  0.21177171  0.49105706  0.75140037    -0.09290
C1966       C  0.19580473  0.51913488  0.74804553     0.29590
F1967       F  0.21125311  0.54646941  0.74904398    -0.19810
H1968       H  0.15201678  0.54153403  0.74392209     0.17960
H1969       H  0.20712782  0.44138608  0.75337400     0.17960
F1970       F  0.14746786  0.43598386  0.74964792    -0.19800
C1971       C  0.97702844  0.30447519  0.74887884    -0.21230
C1972       C  0.00499676  0.28811911  0.75070963    -0.09270
C1973       C  0.03301131  0.30435695  0.74857835     0.29580
C1974       C  0.03305687  0.33658763  0.74588158    -0.21230
C1975       C  0.00516239  0.35345932  0.74633538    -0.09290
C1976       C  0.97699452  0.33686916  0.74671673     0.29590
F1977       F  0.94940724  0.35190345  0.74659884    -0.19810
H1978       H  0.95521520  0.29223684  0.75042888     0.17960
H1979       H  0.05516225  0.34823707  0.74514899     0.17960
F1980       F  0.06042791  0.28920560  0.75089972    -0.19800
C1981       C  0.03880094  0.68185160  0.75468201    -0.21230
C1982       C  0.01128498  0.69897100  0.75444117    -0.09270
C1983       C  0.98307914  0.68368224  0.74943101     0.29580
C1984       C  0.98229163  0.65143486  0.74650382    -0.21230
C1985       C  0.00959576  0.63381182  0.74899064    -0.09290
C1986       C  0.03811128  0.64958047  0.75183799     0.29590
F1987       F  0.06525952  0.63385670  0.75355796    -0.19810
H1988       H  0.06076682  0.69340732  0.75819110     0.17960
H1989       H  0.96005143  0.64029926  0.74376880     0.17960
F1990       F  0.95612472  0.69981297  0.74896595    -0.19800
C1991       C  0.84839249  0.47078081  0.74127374    -0.21230
C1992       C  0.86577039  0.49748694  0.74817197    -0.09270
C1993       C  0.84974640  0.52510115  0.75526317     0.29580
C1994       C  0.81747204  0.52516850  0.75766309    -0.21230
C1995       C  0.80044479  0.49806562  0.75257537    -0.09290
C1996       C  0.81601327  0.47101206  0.74351139     0.29590
F1997       F  0.80005384  0.44440306  0.73858589    -0.19810
H1998       H  0.85987715  0.44931306  0.73544083     0.17960
H1999       H  0.80577599  0.54623541  0.76456701     0.17960
F2000       F  0.86516100  0.55170315  0.76176660    -0.19800
C2001       C  0.76014918  0.33953335  0.02722486    -0.21230
C2002       C  0.75199423  0.35520780  0.99983838    -0.09270
C2003       C  0.74317564  0.33756525  0.97382605     0.29580
C2004       C  0.74501721  0.30514201  0.97464046    -0.21230
C2005       C  0.75563639  0.28993279  0.00129978    -0.09290
C2006       C  0.76226094  0.30729501  0.02786939     0.29590
F2007       F  0.77220313  0.29309065  0.05406097    -0.19810
H2008       H  0.76675477  0.35224336  0.04778411     0.17960
H2009       H  0.73956584  0.29198025  0.95402365     0.17960
F2010       F  0.73381320  0.35151886  0.94732091    -0.19800
C2011       C  0.75739466  0.68570346  0.02787788    -0.21230
C2012       C  0.76162346  0.70068065  0.99946656    -0.09270
C2013       C  0.76088654  0.68324507  0.97210452     0.29580
C2014       C  0.75786893  0.65104129  0.97332554    -0.21230
C2015       C  0.75591058  0.63548133  0.00188430    -0.09290
C2016       C  0.75436193  0.65343151  0.02921716     0.29590
F2017       F  0.75100689  0.64010418  0.05739051    -0.19810
H2018       H  0.75753847  0.69896863  0.04915280     0.17960
H2019       H  0.75866929  0.63817283  0.95184849     0.17960
F2020       F  0.76431242  0.69724152  0.94422289    -0.19800
C2021       C  0.75552286  0.51858883  0.15578932    -0.21230
C2022       C  0.75410325  0.49054478  0.13918503    -0.09270
C2023       C  0.75250700  0.46259020  0.15609681     0.29580
C2024       C  0.75567796  0.46276624  0.18827945    -0.21230
C2025       C  0.75930284  0.49062967  0.20438762    -0.09290
C2026       C  0.75800457  0.51866381  0.18810402     0.29590
F2027       F  0.76038233  0.54603828  0.20331993    -0.19810
H2028       H  0.75620946  0.54050151  0.14368912     0.17960
H2029       H  0.75635636  0.44096032  0.20059328     0.17960
F2030       F  0.74903048  0.43485139  0.14187403    -0.19800
C2031       C  0.76071781  0.46902274  0.80974381    -0.21230
C2032       C  0.75882181  0.49701769  0.79356468    -0.09270
C2033       C  0.75234012  0.52437349  0.80983389     0.29580
C2034       C  0.74984499  0.52389560  0.84218231    -0.21230
C2035       C  0.75389615  0.49613066  0.85880364    -0.09290
C2036       C  0.75802183  0.46840011  0.84197983     0.29590
F2037       F  0.76128097  0.44080908  0.85662268    -0.19810
H2038       H  0.76547928  0.44771765  0.79741740     0.17960
H2039       H  0.74609915  0.54553024  0.85421111     0.17960
F2040       F  0.75000740  0.55173210  0.79459770    -0.19800
C2041       C  0.26662460  0.46248665  0.65540655    -0.21230
C2042       C  0.25605091  0.48862782  0.63904447    -0.09270
C2043       C  0.24657370  0.51479900  0.65596768     0.29580
C2044       C  0.24911786  0.51520262  0.68833710    -0.21230
C2045       C  0.26090407  0.48946981  0.70433936    -0.09290
C2046       C  0.26921931  0.46294945  0.68758355     0.29590
F2047       F  0.28098753  0.43779458  0.70224744    -0.19810
H2048       H  0.27455573  0.44198115  0.64341195     0.17960
H2049       H  0.24318186  0.53612162  0.70075386     0.17960
F2050       F  0.23586231  0.54032995  0.64114999    -0.19800
C2051       C  0.25379203  0.51752203  0.30784033    -0.21230
C2052       C  0.25882381  0.48906272  0.29309229    -0.09270
C2053       C  0.25920818  0.46191346  0.31081604     0.29580
C2054       C  0.25652470  0.46349912  0.34306507    -0.21230
C2055       C  0.25355464  0.49223401  0.35827798    -0.09290
C2056       C  0.25067782  0.51917361  0.34003748     0.29590
F2057       F  0.24593098  0.54732230  0.35305800    -0.19810
H2058       H  0.25326690  0.53868325  0.29446480     0.17960
H2059       H  0.25839500  0.44226607  0.35620968     0.17960
F2060       F  0.26367436  0.43402354  0.29705284    -0.19800
C2061       C  0.25761331  0.64931256  0.47187668    -0.21230
C2062       C  0.25566984  0.63369017  0.50041301    -0.09270
C2063       C  0.25401975  0.65159645  0.52777263     0.29580
C2064       C  0.25678969  0.68386857  0.52648905    -0.21230
C2065       C  0.26106753  0.69892264  0.49813942    -0.09290
C2066       C  0.26048106  0.68155678  0.47073057     0.29590
F2067       F  0.26392307  0.69568106  0.44290780    -0.19810
H2068       H  0.25850545  0.63647307  0.45038611     0.17960
H2069       H  0.25665049  0.69707340  0.54779273     0.17960
F2070       F  0.25081984  0.63825595  0.55595401    -0.19800
C2071       C  0.24532462  0.30319925  0.47494636    -0.21230
C2072       C  0.25685329  0.28787317  0.50117255    -0.09270
C2073       C  0.26442597  0.30520491  0.52755057     0.29580
C2074       C  0.26206182  0.33742849  0.52714938    -0.21230
C2075       C  0.25264941  0.35316080  0.50022443    -0.09290
C2076       C  0.24309861  0.33559729  0.47443586     0.29590
F2077       F  0.23259815  0.34964618  0.44840904    -0.19810
H2078       H  0.23941210  0.29015604  0.45438577     0.17960
H2079       H  0.26935671  0.35010193  0.54750213     0.17960
F2080       F  0.27530224  0.29105257  0.55337540    -0.19800
C2081       C  0.47947664  0.65075579  0.74004055    -0.21230
C2082       C  0.50647520  0.63460273  0.74857069    -0.09270
C2083       C  0.53308962  0.65178995  0.75649567     0.29580
C2084       C  0.53320598  0.68410293  0.75350561    -0.21230
C2085       C  0.50685185  0.69974549  0.74276801    -0.09290
C2086       C  0.47971078  0.68294080  0.73692414     0.29590
F2087       F  0.45370475  0.69758560  0.72711151    -0.19810
H2088       H  0.45850722  0.63839228  0.73407379     0.17960
H2089       H  0.55426404  0.69682167  0.75832819     0.17960
F2090       F  0.55929243  0.63745975  0.76617758    -0.19800
C2091       C  0.66158331  0.52234197  0.74452128    -0.21230
C2092       C  0.64604385  0.49420740  0.75000250    -0.09270
C2093       C  0.66392150  0.46746845  0.75580565     0.29580
C2094       C  0.69628484  0.46854887  0.75346449    -0.21230
C2095       C  0.71131427  0.49621728  0.74564216    -0.09290
C2096       C  0.69383500  0.52331710  0.74214197     0.29590
F2097       F  0.70788828  0.55051027  0.73509720    -0.19810
H2098       H  0.64872348  0.54343583  0.74036175     0.17960
H2099       H  0.70957339  0.44752343  0.75653351     0.17960
F2100       F  0.65033287  0.44004865  0.76274189    -0.19800
C2101       C  0.31807914  0.46717976  0.75492803    -0.21230
C2102       C  0.30106293  0.49358471  0.74670576    -0.09270
C2103       C  0.31647048  0.52193179  0.74341202     0.29580
C2104       C  0.34865998  0.52347994  0.74640348    -0.21230
C2105       C  0.36620686  0.49659387  0.75215966    -0.09290
C2106       C  0.35037722  0.46859760  0.75767803     0.29590
F2107       F  0.36619649  0.44223100  0.76412593    -0.19810
H2108       H  0.30655894  0.44513094  0.75765410     0.17960
H2109       H  0.35973340  0.54550270  0.74231484     0.17960
F2110       F  0.30048132  0.54786758  0.73573699    -0.19800
C2111       C  0.53133104  0.30447419  0.74528479    -0.21230
C2112       C  0.50320560  0.28864147  0.74841293    -0.09270
C2113       C  0.47626178  0.30546839  0.75530084     0.29580
C2114       C  0.47725514  0.33781177  0.75729306    -0.21230
C2115       C  0.50502625  0.35402558  0.75200909    -0.09290
C2116       C  0.53240521  0.33680697  0.74722134     0.29590
F2117       F  0.55998081  0.35111499  0.74254394    -0.19810
H2118       H  0.55230534  0.29179962  0.73999920     0.17960
H2119       H  0.45589109  0.35014934  0.76152307     0.17960
F2120       F  0.44864887  0.29085114  0.75839399    -0.19800
C2121       C  0.75567923  0.64460783  0.52608953    -0.21230
C2122       C  0.75922449  0.62934056  0.49750493    -0.09270
C2123       C  0.76307030  0.64752154  0.47061487     0.29580
C2124       C  0.76076066  0.67988168  0.47222504    -0.21230
C2125       C  0.75483733  0.69461344  0.50051977    -0.09290
C2126       C  0.75317683  0.67681403  0.52757072     0.29590
F2127       F  0.74767381  0.69046772  0.55530993    -0.19810
H2128       H  0.75303264  0.63154681  0.54728699     0.17960
H2129       H  0.76232946  0.69339827  0.45119173     0.17960
F2130       F  0.76796154  0.63427977  0.44259771    -0.19800
C2131       C  0.76412164  0.51906406  0.65529119    -0.21230
C2132       C  0.75751945  0.49142523  0.63926929    -0.09270
C2133       C  0.75079271  0.46459360  0.65665222     0.29580
C2134       C  0.74808595  0.46621388  0.68884111    -0.21230
C2135       C  0.75272160  0.49423281  0.70447274    -0.09290
C2136       C  0.76177533  0.52048802  0.68762711     0.29590
F2137       F  0.76663365  0.54786809  0.70225307    -0.19810
H2138       H  0.76981955  0.53997153  0.64276242     0.17960
H2139       H  0.74131387  0.44572277  0.70157157     0.17960
F2140       F  0.74495622  0.43709828  0.64260514    -0.19800
C2141       C  0.74813930  0.33342402  0.47160182    -0.21230
C2142       C  0.75541725  0.34892747  0.49936118    -0.09270
C2143       C  0.76241990  0.33107604  0.52576717     0.29580
C2144       C  0.75963709  0.29874255  0.52485901    -0.21230
C2145       C  0.75014706  0.28375678  0.49765636    -0.09290
C2146       C  0.74526935  0.30122891  0.47080541     0.29590
F2147       F  0.73640381  0.28723134  0.44411051    -0.19810
H2148       H  0.74292639  0.34628315  0.45075544     0.17960
H2149       H  0.76363308  0.28547258  0.54572067     0.17960
F2150       F  0.77097484  0.34472853  0.55270770    -0.19800
C2151       C  0.76457521  0.50979065  0.34273869    -0.21230
C2152       C  0.75556820  0.48288530  0.35870335    -0.09270
C2153       C  0.74613228  0.45683446  0.34119774     0.29580
C2154       C  0.74478830  0.45833451  0.30897303    -0.21230
C2155       C  0.75248868  0.48556371  0.29332247    -0.09290
C2156       C  0.76285274  0.51126379  0.31037415     0.29590
F2157       F  0.76918737  0.53842604  0.29600257    -0.19810
H2158       H  0.77148895  0.53025733  0.35544761     0.17960
H2159       H  0.73624255  0.43851153  0.29620349     0.17960
F2160       F  0.73580024  0.43052646  0.35474078    -0.19800
C2161       C  0.69768780  0.73365644  0.47184618    -0.21230
C2162       C  0.71341832  0.73585310  0.50011467    -0.09270
C2163       C  0.69669826  0.74286023  0.52704218     0.29580
C2164       C  0.66438870  0.74559698  0.52590791    -0.21230
C2165       C  0.64820096  0.74130786  0.49790244    -0.09290
C2166       C  0.66546294  0.73669123  0.47056746     0.29590
F2167       F  0.65123454  0.73345996  0.44275215    -0.19810
H2168       H  0.71036118  0.72863623  0.45082541     0.17960
H2169       H  0.65204716  0.74979810  0.54726415     0.17960
F2170       F  0.71143849  0.74551127  0.55465259    -0.19800
C2171       C  0.53570330  0.73718670  0.65191809    -0.21230
C2172       C  0.50832177  0.74506375  0.63606578    -0.09270
C2173       C  0.48202337  0.75332529  0.65356875     0.29580
C2174       C  0.48257246  0.75116835  0.68595050    -0.21230
C2175       C  0.50928316  0.74094167  0.70133700    -0.09290
C2176       C  0.53612534  0.73488793  0.68416121     0.29590
F2177       F  0.56242399  0.72544499  0.69852993    -0.19810
H2178       H  0.55646393  0.73102105  0.63932295     0.17960
H2179       H  0.46172924  0.75613027  0.69893917     0.17960
F2180       F  0.45547421  0.76246316  0.63952438    -0.19800
C2181       C  0.35183146  0.74205468  0.52343347    -0.21230
C2182       C  0.36749113  0.74507904  0.49502999    -0.09270
C2183       C  0.34969530  0.74852191  0.46779681     0.29580
C2184       C  0.31735913  0.74606346  0.46891145    -0.21230
C2185       C  0.30224430  0.74046622  0.49702926    -0.09290
C2186       C  0.31959534  0.73952876  0.52443107     0.29590
F2187       F  0.30547855  0.73481086  0.55206658    -0.19810
H2188       H  0.36460752  0.73984626  0.54486165     0.17960
H2189       H  0.30416565  0.74726593  0.44762988     0.17960
F2190       F  0.36327294  0.75312744  0.43990515    -0.19800
C2191       C  0.47923261  0.73097477  0.34068519    -0.21230
C2192       C  0.50606908  0.74110252  0.35619932    -0.09270
C2193       C  0.53177379  0.75046946  0.33844366     0.29580
C2194       C  0.53120140  0.74762746  0.30609999    -0.21230
C2195       C  0.50510500  0.73536245  0.29107111    -0.09290
C2196       C  0.47885410  0.72781412  0.30853790     0.29590
F2197       F  0.45321270  0.71620798  0.29454805    -0.19810
H2198       H  0.45896503  0.72374450  0.35350780     0.17960
H2199       H  0.55161850  0.75365057  0.29288707     0.17960
F2200       F  0.55775445  0.76142639  0.35228300    -0.19800
C2201       C  0.66213918  0.46516793  0.24125727    -0.21230
C2202       C  0.64630980  0.49283107  0.24809259    -0.09270
C2203       C  0.66401113  0.51946333  0.25531390     0.29580
C2204       C  0.69619832  0.51775725  0.25719936    -0.21230
C2205       C  0.71161562  0.48983423  0.25200008    -0.09290
C2206       C  0.69451224  0.46359264  0.24327576     0.29590
F2207       F  0.70888388  0.43608687  0.23849403    -0.19810
H2208       H  0.64931851  0.44432975  0.23578613     0.17960
H2209       H  0.70912727  0.53808012  0.26420089     0.17960
F2210       F  0.65070711  0.54681838  0.26285578    -0.19800
C2211       C  0.34976367  0.51598977  0.25045673    -0.21230
C2212       C  0.36584253  0.48783471  0.24677684    -0.09270
C2213       C  0.34844154  0.46039100  0.24333716     0.29580
C2214       C  0.31623931  0.46091077  0.24664895    -0.21230
C2215       C  0.30058534  0.48876048  0.25218632    -0.09290
C2216       C  0.31745824  0.51647647  0.25314062     0.29590
F2217       F  0.30282106  0.54386293  0.25785640    -0.19810
H2218       H  0.36226678  0.53758452  0.25277083     0.17960
H2219       H  0.30359484  0.43930465  0.24599793     0.17960
F2220       F  0.36230664  0.43279857  0.23778693    -0.19800
C2221       C  0.47859507  0.33381927  0.24489136    -0.21230
C2222       C  0.50745448  0.34864411  0.24827989    -0.09270
C2223       C  0.53412248  0.32995868  0.25167271     0.29580
C2224       C  0.53135204  0.29785564  0.25470992    -0.21230
C2225       C  0.50231760  0.28354781  0.25357413    -0.09290
C2226       C  0.47602299  0.30157784  0.24730185     0.29590
F2227       F  0.44771403  0.28821653  0.24481826    -0.19810
H2228       H  0.45772432  0.34732157  0.24171423     0.17960
H2229       H  0.55190719  0.28412689  0.25889888     0.17960
F2230       F  0.56287128  0.34231496  0.25353823    -0.19800
C2231       C  0.53407319  0.64449608  0.25639616    -0.21230
C2232       C  0.50782693  0.62855254  0.24545603    -0.09270
C2233       C  0.48241967  0.64586933  0.23461765     0.29580
C2234       C  0.48252524  0.67826198  0.23692717    -0.21230
C2235       C  0.50794821  0.69381143  0.24994441    -0.09290
C2236       C  0.53404215  0.67671137  0.25891230     0.29590
F2237       F  0.55908104  0.69110310  0.27131217    -0.19810
H2238       H  0.55410119  0.63198702  0.26478620     0.17960
H2239       H  0.46216577  0.69107823  0.23000216     0.17960
F2240       F  0.45708760  0.63153741  0.22280918    -0.19800
C2241       C  0.47421883  0.24820308  0.65763845    -0.21230
C2242       C  0.50200602  0.24169284  0.64187329    -0.09270
C2243       C  0.52880129  0.23557628  0.65951432     0.29580
C2244       C  0.52827179  0.23879246  0.69176264    -0.21230
C2245       C  0.50095600  0.24726083  0.70711144    -0.09290
C2246       C  0.47368514  0.25104204  0.68988948     0.29590
F2247       F  0.44673229  0.25856451  0.70411639    -0.19810
H2248       H  0.45308213  0.25265520  0.64493449     0.17960
H2249       H  0.54951958  0.23581439  0.70468236     0.17960
F2250       F  0.55580580  0.22742841  0.64576085    -0.19800
C2251       C  0.47336141  0.24655999  0.34446628    -0.21230
C2252       C  0.50101238  0.24042779  0.36056817    -0.09270
C2253       C  0.52812076  0.23469078  0.34325977     0.29580
C2254       C  0.52746855  0.23587802  0.31073296    -0.21230
C2255       C  0.49994452  0.24324494  0.29509419    -0.09290
C2256       C  0.47299952  0.24875395  0.31233292     0.29590
F2257       F  0.44603394  0.25605220  0.29798017    -0.19810
H2258       H  0.45201493  0.25121532  0.35647922     0.17960
H2259       H  0.54864071  0.23238503  0.29782561     0.17960
F2260       F  0.55543297  0.22907473  0.35773021    -0.19800
C2261       C  0.34605288  0.23354263  0.52515659    -0.21230
C2262       C  0.36312522  0.24141402  0.49858000    -0.09270
C2263       C  0.34683280  0.24963403  0.47144662     0.29580
C2264       C  0.31459256  0.25226460  0.47185191    -0.21230
C2265       C  0.29786864  0.24624901  0.49891135    -0.09290
C2266       C  0.31368759  0.23589309  0.52536165     0.29590
F2267       F  0.29806651  0.22988027  0.55191040    -0.19810
H2268       H  0.35780664  0.22685308  0.54622720     0.17960
H2269       H  0.30267201  0.26018782  0.45127149     0.17960
F2270       F  0.36196277  0.25714891  0.44497624    -0.19800
C2271       C  0.65945564  0.23017571  0.47588061    -0.21230
C2272       C  0.64327687  0.23892103  0.50274767    -0.09270
C2273       C  0.66045332  0.24766756  0.52915689     0.29580
C2274       C  0.69272893  0.24970202  0.52776843    -0.21230
C2275       C  0.70858133  0.24276496  0.50036426    -0.09290
C2276       C  0.69179362  0.23220936  0.47459776     0.29590
F2277       F  0.70640659  0.22592262  0.44755201    -0.19810
H2278       H  0.64701218  0.22317758  0.45530244     0.17960
H2279       H  0.70535134  0.25792468  0.54781469     0.17960
F2280       F  0.64617081  0.25630145  0.55576670    -0.19800
loop_ 
_geom_bond_atom_site_label_1 
_geom_bond_atom_site_label_2 
_geom_bond_distance 
_geom_bond_site_symmetry_2 
_ccdc_geom_bond_type 
C1           N19   1.347       .  A
C1           C38   1.453       .  S
C1          C160   1.456       .  S
N2           N19   1.324       .  A
N2           N24   1.318       .  A
N2          Co39   2.075       .  S
C3           N28   1.335       .  A
C3           C41   1.466       .  S
C3           H48   1.080       .  S
H4           C45   1.081       .  S
C5           N29   1.338       .  A
C5            C9   1.454       .  S
C5           H34   1.081       .  S
Co6          N24   2.071       .  S
Co6          N14   2.073       .  S
Co6          N46   2.090       .  S
Co6          N22   2.093       .  S
Co6         Cl50   2.455       .  S
N7           C45   1.339       .  A
N7           N14   1.318       .  A
N7           Co8   2.074       .  S
Co8          N11   2.070       .  S
Co8          N28   2.079       .  S
Co8          N15   2.084       .  S
Co8         Cl50   2.433       .  S
C9           N47   1.346       .  A
C9          C266   1.453       .  S
N10          N17   1.318       .  A
N10          N40   1.324       .  A
N10         Co43   2.077       .  S
N11          N29   1.318       .  A
N11          N47   1.323       .  A
N12          C41   1.355       .  A
N12          N22   1.327       .  A
H13          C38   1.081       .  S
N14          N35   1.323       .  A
N15          N33   1.321       .  A
N15          N20   1.322       .  A
C16          N20   1.350       .  A
C16          C44   1.469       .  S
C16        C2262   1.489       .  S
N17          C32   1.338       .  A
N17         Co39   2.070       .  S
C18          N46   1.341       .  A
C18          C21   1.467       .  S
C18          H52   1.081       .  S
C21          N42   1.351       .  A
C21        C2272   1.488       .  S
N22          N28   1.320       .  A
N23          C49   1.340       .  A
N23          N25   1.321       .  A
N23         Co39   2.088       .  S
N24          C38   1.338       .  A
N25          N53   1.324       .  A
N25         Co43   2.090       .  S
H26          C49   1.080       .  S
H27          C44   1.081       .  S
N29         Co43   2.069       .  S
N30          N42   1.323       .  A
N30          N46   1.322       .  A
N30         Co39   2.088       .  S
C31          N35   1.347       .  A
C31          C45   1.454       .  S
C31         C104   1.457       .  S
C32          C51   1.453       .  S
C32          H36   1.081       .  S
N33          C44   1.343       .  A
N33         Co43   2.091       .  S
C37          N53   1.354       .  A
C37          C49   1.468       .  S
C37        C2242   1.491       .  S
Co39        Cl50   2.438       .  S
N40          C51   1.347       .  A
C41        C2252   1.491       .  S
Co43        Cl50   2.452       .  S
C51         C263   1.456       .  S
C54          N72   1.345       .  A
C54          C91   1.456       .  S
C54         C210   1.455       .  S
N55          N72   1.322       .  A
N55          N77   1.318       .  A
N55         Co92   2.065       .  S
C56          N81   1.342       .  A
C56          C94   1.469       .  S
C56         H101   1.081       .  S
H57          C98   1.081       .  S
C58          N82   1.340       .  A
C58          C62   1.457       .  S
C58          H87   1.081       .  S
Co59         N77   2.079       .  S
Co59         N67   2.069       .  S
Co59         N99   2.073       .  S
Co59         N75   2.083       .  S
Co59       Cl103   2.432       .  S
N60          C98   1.340       .  A
N60          N67   1.318       .  A
N60         Co61   2.075       .  S
Co61         N64   2.073       .  S
Co61         N81   2.089       .  S
Co61         N68   2.092       .  S
Co61       Cl103   2.452       .  S
C62         N100   1.346       .  A
C62         C296   1.459       .  S
N63          N70   1.318       .  A
N63          N93   1.323       .  A
N63         Co96   2.073       .  S
N64          N82   1.319       .  A
N64         N100   1.323       .  A
N65          C94   1.351       .  A
N65          N75   1.322       .  A
H66          C91   1.081       .  S
N67          N88   1.322       .  A
N68          N86   1.321       .  A
N68          N73   1.324       .  A
C69          N73   1.354       .  A
C69          C97   1.468       .  S
C69        C2212   1.491       .  S
N70          C85   1.340       .  A
N70         Co92   2.076       .  S
C71          N99   1.335       .  A
C71          C74   1.465       .  S
C71         H105   1.078       .  S
C74          N95   1.357       .  A
C74        C2202   1.492       .  S
N75          N81   1.320       .  A
N76         C102   1.338       .  A
N76          N78   1.321       .  A
N76         Co92   2.081       .  S
N77          C91   1.340       .  A
N78         N106   1.325       .  A
N78         Co96   2.097       .  S
H79         C102   1.078       .  S
H80          C97   1.079       .  S
N82         Co96   2.080       .  S
N83          N95   1.326       .  A
N83          N99   1.319       .  A
N83         Co92   2.096       .  S
C84          N88   1.345       .  A
C84          C98   1.456       .  S
C84         C107   1.455       .  S
C85         C104   1.454       .  S
C85          H89   1.081       .  S
N86          C97   1.338       .  A
N86         Co96   2.085       .  S
C90         N106   1.355       .  A
C90         C102   1.469       .  S
C90        C2222   1.494       .  S
Co92       Cl103   2.452       .  S
N93         C104   1.347       .  A
C94        C2232   1.486       .  S
Co96       Cl103   2.441       .  S
C107        N125   1.346       .  A
C107        C144   1.455       .  S
N108        N125   1.323       .  A
N108        N130   1.318       .  A
N108       Co145   2.073       .  S
C109        N134   1.340       .  A
C109        C147   1.466       .  S
C109        H154   1.081       .  S
H110        C151   1.081       .  S
C111        N135   1.339       .  A
C111        C115   1.454       .  S
C111        H140   1.081       .  S
Co112       N130   2.073       .  S
Co112       N120   2.076       .  S
Co112       N152   2.092       .  S
Co112       N128   2.095       .  S
Co112      Cl156   2.452       .  S
N113        C151   1.340       .  A
N113        N120   1.318       .  A
N113       Co114   2.074       .  S
Co114       N117   2.076       .  S
Co114       N134   2.085       .  S
Co114       N121   2.089       .  S
Co114      Cl156   2.439       .  S
C115        N153   1.347       .  A
C115        C243   1.456       .  S
N116        N123   1.318       .  A
N116        N146   1.324       .  A
N116       Co149   2.076       .  S
N117        N135   1.318       .  A
N117        N153   1.323       .  A
N118        C147   1.354       .  A
N118        N128   1.325       .  A
H119        C144   1.081       .  S
N120        N141   1.323       .  A
N121        N139   1.321       .  A
N121        N126   1.323       .  A
C122        N126   1.353       .  A
C122        C150   1.469       .  S
C122       C2172   1.490       .  S
N123        C138   1.340       .  A
N123       Co145   2.073       .  S
C124        N152   1.343       .  A
C124        C127   1.469       .  S
C124        H158   1.081       .  S
C127        N148   1.351       .  A
C127       C2192   1.488       .  S
N128        N134   1.321       .  A
N129        C155   1.339       .  A
N129        N131   1.320       .  A
N129       Co145   2.081       .  S
N130        C144   1.339       .  A
N131        N159   1.324       .  A
N131       Co149   2.093       .  S
H132        C155   1.080       .  S
H133        C150   1.080       .  S
N135       Co149   2.071       .  S
N136        N148   1.322       .  A
N136        N152   1.321       .  A
N136       Co145   2.086       .  S
C137        N141   1.347       .  A
C137        C151   1.455       .  S
C137        C168   1.458       .  S
C138        C157   1.455       .  S
C138        H142   1.081       .  S
N139        C150   1.342       .  A
N139       Co149   2.088       .  S
C143        N159   1.355       .  A
C143        C155   1.467       .  S
C143       C2182   1.491       .  S
Co145      Cl156   2.439       .  S
N146        C157   1.347       .  A
C147       C2165   1.491       .  S
Co149      Cl156   2.451       .  S
C157        C274   1.458       .  S
C160        N178   1.346       .  A
C160        C197   1.455       .  S
N161        N178   1.322       .  A
N161        N183   1.317       .  A
N161       Co198   2.072       .  S
C162        N187   1.341       .  A
C162        C200   1.467       .  S
C162        H207   1.081       .  S
H163        C204   1.081       .  S
C164        N188   1.339       .  A
C164        C168   1.454       .  S
C164        H193   1.081       .  S
Co165       N183   2.072       .  S
Co165       N173   2.071       .  S
Co165       N205   2.088       .  S
Co165       N181   2.090       .  S
Co165      Cl209   2.451       .  S
N166        C204   1.340       .  A
N166        N173   1.318       .  A
N166       Co167   2.076       .  S
Co167       N170   2.078       .  S
Co167       N187   2.089       .  S
Co167       N174   2.093       .  S
Co167      Cl209   2.440       .  S
C168        N206   1.347       .  A
N169        N176   1.318       .  A
N169        N199   1.323       .  A
N169       Co202   2.068       .  S
N170        N188   1.318       .  A
N170        N206   1.324       .  A
N171        C200   1.352       .  A
N171        N181   1.323       .  A
H172        C197   1.081       .  S
N173        N194   1.322       .  A
N174        N192   1.321       .  A
N174        N179   1.323       .  A
C175        N179   1.353       .  A
C175        C203   1.469       .  S
C175       C2122   1.492       .  S
N176        C191   1.339       .  A
N176       Co198   2.077       .  S
C177        N205   1.342       .  A
C177        C180   1.470       .  S
C177        H211   1.080       .  S
C180        N201   1.352       .  A
C180       C2142   1.489       .  S
N181        N187   1.321       .  A
N182        C208   1.335       .  A
N182        N184   1.320       .  A
N182       Co198   2.075       .  S
N183        C197   1.340       .  A
N184        N212   1.326       .  A
N184       Co202   2.097       .  S
H185        C208   1.079       .  S
H186        C203   1.080       .  S
N188       Co202   2.073       .  S
N189        N201   1.322       .  A
N189        N205   1.320       .  A
N189       Co198   2.085       .  S
C190        N194   1.345       .  A
C190        C204   1.455       .  S
C190        C221   1.456       .  S
C191        C210   1.456       .  S
C191        H195   1.081       .  S
N192        C203   1.341       .  A
N192       Co202   2.087       .  S
C196        N212   1.356       .  A
C196        C208   1.464       .  S
C196       C2152   1.491       .  S
Co198      Cl209   2.432       .  S
N199        C210   1.345       .  A
C200       C2132   1.491       .  S
Co202      Cl209   2.455       .  S
C213        N231   1.346       .  A
C213        C250   1.455       .  S
C213        C316   1.457       .  S
N214        N231   1.323       .  A
N214        N236   1.318       .  A
N214       Co251   2.073       .  S
C215        N240   1.341       .  A
C215        C253   1.468       .  S
C215        H260   1.081       .  S
H216        C257   1.081       .  S
C217        N241   1.339       .  A
C217        C221   1.455       .  S
C217        H246   1.081       .  S
Co218       N236   2.075       .  S
Co218       N226   2.076       .  S
Co218       N258   2.083       .  S
Co218       N234   2.089       .  S
Co218      Cl262   2.442       .  S
N219        C257   1.338       .  A
N219        N226   1.318       .  A
N219       Co220   2.070       .  S
Co220       N223   2.073       .  S
Co220       N240   2.085       .  S
Co220       N227   2.090       .  S
Co220      Cl262   2.446       .  S
C221        N259   1.346       .  A
N222        N229   1.318       .  A
N222        N252   1.323       .  A
N222       Co255   2.076       .  S
N223        N241   1.318       .  A
N223        N259   1.323       .  A
N224        C253   1.353       .  A
N224        N234   1.323       .  A
H225        C250   1.081       .  S
N226        N247   1.324       .  A
N227        N245   1.321       .  A
N227        N232   1.323       .  A
C228        N232   1.353       .  A
C228        C256   1.469       .  S
C228       C2092   1.491       .  S
N229        C244   1.339       .  A
N229       Co251   2.072       .  S
C230        N258   1.339       .  A
C230        C233   1.467       .  S
C230        H264   1.080       .  S
C233        N254   1.354       .  A
C233       C2105   1.489       .  S
N234        N240   1.320       .  A
N235        C261   1.341       .  A
N235        N237   1.322       .  A
N235       Co251   2.088       .  S
N236        C250   1.339       .  A
N237        N265   1.324       .  A
N237       Co255   2.091       .  S
H238        C261   1.081       .  S
H239        C256   1.080       .  S
N241       Co255   2.072       .  S
N242        N254   1.325       .  A
N242        N258   1.321       .  A
N242       Co251   2.093       .  S
C243        N247   1.347       .  A
C243        C257   1.453       .  S
C244        C263   1.454       .  S
C244        H248   1.081       .  S
N245        C256   1.341       .  A
N245       Co255   2.088       .  S
C249        N265   1.352       .  A
C249        C261   1.468       .  S
C249       C2115   1.491       .  S
Co251      Cl262   2.448       .  S
N252        C263   1.347       .  A
C253       C2082   1.488       .  S
Co255      Cl262   2.444       .  S
C266        N284   1.345       .  A
C266        C303   1.455       .  S
N267        N284   1.321       .  A
N267        N289   1.318       .  A
N267       Co304   2.067       .  S
C268        N293   1.340       .  A
C268        C306   1.470       .  S
C268        H313   1.079       .  S
H269        C310   1.081       .  S
C270        N294   1.340       .  A
C270        C274   1.455       .  S
C270        H299   1.081       .  S
Co271       N289   2.072       .  S
Co271       N279   2.073       .  S
Co271       N311   2.087       .  S
Co271       N287   2.090       .  S
Co271      Cl315   2.450       .  S
N272        C310   1.341       .  A
N272        N279   1.319       .  A
N272       Co273   2.080       .  S
Co273       N276   2.075       .  S
Co273       N293   2.090       .  S
Co273       N280   2.099       .  S
Co273      Cl315   2.444       .  S
C274        N312   1.347       .  A
N275        N282   1.318       .  A
N275        N305   1.322       .  A
N275       Co308   2.067       .  S
N276        N294   1.319       .  A
N276        N312   1.323       .  A
N277        C306   1.353       .  A
N277        N287   1.324       .  A
H278        C303   1.081       .  S
N279        N300   1.323       .  A
N280        N298   1.321       .  A
N280        N285   1.325       .  A
C281        N285   1.355       .  A
C281        C309   1.467       .  S
C281       C2062   1.493       .  S
N282        C297   1.340       .  A
N282       Co304   2.079       .  S
C283        N311   1.342       .  A
C283        C286   1.469       .  S
C283        H317   1.081       .  S
C286        N307   1.352       .  A
C286       C2075   1.488       .  S
N287        N293   1.321       .  A
N288        C314   1.335       .  A
N288        N290   1.320       .  A
N288       Co304   2.073       .  S
N289        C303   1.339       .  A
N290        N318   1.327       .  A
N290       Co308   2.099       .  S
H291        C314   1.081       .  S
H292        C309   1.079       .  S
N294       Co308   2.077       .  S
N295        N307   1.322       .  A
N295        N311   1.320       .  A
N295       Co304   2.085       .  S
C296        N300   1.346       .  A
C296        C310   1.457       .  S
C297        C316   1.457       .  S
C297        H301   1.081       .  S
N298        C309   1.338       .  A
N298       Co308   2.080       .  S
C302        N318   1.356       .  A
C302        C314   1.463       .  S
C302       C2042   1.488       .  S
Co304      Cl315   2.435       .  S
N305        C316   1.345       .  A
C306       C2055   1.493       .  S
Co308      Cl315   2.450       .  S
C319        N337   1.347   1_554  A
C319        C356   1.454       .  S
C319        C584   1.456   1_554  S
N320        N337   1.323       .  A
N320        N342   1.318   1_556  A
N320       Co357   2.075       .  S
C321        N346   1.336       .  A
C321        C359   1.467       .  S
C321        H366   1.078       .  S
H322        C363   1.081       .  S
C323        N347   1.340       .  A
C323        C327   1.456       .  S
C323        H352   1.081       .  S
Co324       N342   2.072       .  S
Co324       N332   2.069       .  S
Co324       N364   2.082       .  S
Co324       N340   2.095       .  S
Co324      Cl368   2.450   1_554  S
N325        C363   1.339       .  A
N325        N332   1.317       .  A
N325       Co326   2.074       .  S
Co326       N329   2.071       .  S
Co326       N346   2.076       .  S
Co326       N333   2.085       .  S
Co326      Cl368   2.438   1_554  S
C327        N365   1.346   1_556  A
C327        C531   1.457       .  S
N328        N335   1.319       .  A
N328        N358   1.323       .  A
N328       Co361   2.075       .  S
N329        N347   1.318   1_554  A
N329        N365   1.323       .  A
N330        C359   1.356       .  A
N330        N340   1.325       .  A
H331        C356   1.081       .  S
N332        N353   1.323       .  A
N333        N351   1.320   1_554  A
N333        N338   1.322       .  A
C334        N338   1.351   1_556  A
C334        C362   1.470       .  S
C334       C2002   1.488       .  S
N335        C350   1.340       .  A
N335       Co357   2.077       .  S
C336        N364   1.339       .  A
C336        C339   1.468       .  S
C336        H370   1.079       .  S
C339        N360   1.355   1_554  A
C339       C2015   1.493       .  S
N340        N346   1.319       .  A
N341        C367   1.342       .  A
N341        N343   1.322       .  A
N341       Co357   2.090       .  S
N342        C356   1.339       .  A
N343        N371   1.323       .  A
N343       Co361   2.092       .  S
H344        C367   1.081       .  S
H345        C362   1.081       .  S
N347       Co361   2.074       .  S
N348        N360   1.324       .  A
N348        N364   1.321   1_556  A
N348       Co357   2.097       .  S
C349        N353   1.346       .  A
C349        C363   1.455       .  S
C349        C528   1.456       .  S
C350        C369   1.455       .  S
C350        H354   1.081       .  S
N351        C362   1.343       .  A
N351       Co361   2.090       .  S
C355        N371   1.352       .  A
C355        C367   1.468       .  S
C355       C2035   1.491       .  S
Co357      Cl368   2.443       .  S
N358        C369   1.346       .  A
C359       C2022   1.492       .  S
Co361      Cl368   2.449       .  S
C369        C422   1.458       .  S
C372        N390   1.347   1_455  A
C372        C409   1.453       .  S
C372        C581   1.455       .  S
N373        N390   1.323       .  A
N373        N395   1.318   1_655  A
N373       Co410   2.076       .  S
C374        N399   1.339       .  A
C374        C412   1.468       .  S
C374        H419   1.080       .  S
H375        C416   1.081       .  S
C376        N400   1.338       .  A
C376        C380   1.453   1_655  S
C376        H405   1.081       .  S
Co377       N395   2.071       .  S
Co377       N385   2.073       .  S
Co377       N417   2.084       .  S
Co377       N393   2.089       .  S
Co377      Cl421   2.443       .  S
N378        C416   1.338       .  A
N378        N385   1.318       .  A
N378       Co379   2.069       .  S
Co379       N382   2.076       .  S
Co379       N399   2.086       .  S
Co379       N386   2.085       .  S
Co379      Cl421   2.445       .  S
C380        N418   1.347       .  A
C380        C614   1.455       .  S
N381        N388   1.318       .  A
N381        N411   1.324       .  A
N381       Co414   2.077       .  S
N382        N400   1.318   1_455  A
N382        N418   1.323       .  A
N383        C412   1.353       .  A
N383        N393   1.325       .  A
H384        C409   1.081       .  S
N385        N406   1.323       .  A
N386        N404   1.320   1_455  A
N386        N391   1.323       .  A
C387        N391   1.352       .  A
C387        C415   1.469   1_455  S
C387       C1985   1.490       .  S
N388        C403   1.339       .  A
N388       Co410   2.074       .  S
C389        N417   1.338       .  A
C389        C392   1.467       .  S
C389        H423   1.080       .  S
C392        N413   1.354   1_455  A
C392       C1975   1.492       .  S
N393        N399   1.320       .  A
N394        C420   1.342       .  A
N394        N396   1.322       .  A
N394       Co410   2.091       .  S
N395        C409   1.338       .  A
N396        N424   1.323       .  A
N396       Co414   2.087       .  S
H397        C420   1.081       .  S
H398        C415   1.081       .  S
N400       Co414   2.070       .  S
N401        N413   1.325       .  A
N401        N417   1.321   1_655  A
N401       Co410   2.093       .  S
C402        N406   1.347       .  A
C402        C416   1.453       .  S
C402        C475   1.454       .  S
C403        C422   1.455       .  S
C403        H407   1.081       .  S
N404        C415   1.340       .  A
N404       Co414   2.088       .  S
C408        N424   1.351       .  A
C408        C420   1.468       .  S
C408       C1992   1.490       .  S
Co410      Cl421   2.450   1_655  S
N411        C422   1.347       .  A
C412       C1962   1.492       .  S
Co414      Cl421   2.442   1_655  S
C425        N443   1.347       .  A
C425        C462   1.456   1_556  S
C425        C539   1.460       .  S
N426        N443   1.323       .  A
N426        N448   1.318   1_556  A
N426       Co463   2.075       .  S
C427        N452   1.335       .  A
C427        C465   1.465       .  S
C427        H472   1.078       .  S
H428        C469   1.081       .  S
C429        N453   1.340       .  A
C429        C433   1.456       .  S
C429        H458   1.081       .  S
Co430       N448   2.079       .  S
Co430       N438   2.067       .  S
Co430       N470   2.084       .  S
Co430       N446   2.097       .  S
Co430      Cl474   2.449   1_554  S
N431        C469   1.339       .  A
N431        N438   1.318       .  A
N431       Co432   2.074       .  S
Co432       N435   2.070       .  S
Co432       N452   2.073       .  S
Co432       N439   2.083       .  S
Co432      Cl474   2.438   1_554  S
C433        N471   1.346   1_556  A
C433        C592   1.457   1_556  S
N434        N441   1.319       .  A
N434        N464   1.322       .  A
N434       Co467   2.072       .  S
N435        N453   1.317   1_554  A
N435        N471   1.323       .  A
N436        C465   1.357       .  A
N436        N446   1.326       .  A
H437        C462   1.081       .  S
N438        N459   1.322       .  A
N439        N457   1.319   1_554  A
N439        N444   1.322       .  A
C440        N444   1.351   1_556  A
C440        C468   1.469       .  S
C440       C1942   1.488       .  S
N441        C456   1.340       .  A
N441       Co463   2.074       .  S
C442        N470   1.339       .  A
C442        C445   1.467       .  S
C442        H476   1.080       .  S
C445        N466   1.354   1_554  A
C445       C1952   1.491       .  S
N446        N452   1.319       .  A
N447        C473   1.341       .  A
N447        N449   1.322       .  A
N447       Co463   2.091       .  S
N448        C462   1.341       .  A
N449        N477   1.323       .  A
N449       Co467   2.086       .  S
H450        C473   1.081       .  S
H451        C468   1.081       .  S
N453       Co467   2.073       .  S
N454        N466   1.325       .  A
N454        N470   1.322   1_556  A
N454       Co463   2.096       .  S
C455        N459   1.345       .  A
C455        C469   1.454       .  S
C455        C508   1.453       .  S
C456        C475   1.455       .  S
C456        H460   1.081       .  S
N457        C468   1.342       .  A
N457       Co467   2.087       .  S
C461        N477   1.351       .  A
C461        C473   1.469       .  S
C461       C1922   1.490       .  S
Co463      Cl474   2.443       .  S
N464        C475   1.346       .  A
C465       C1932   1.491       .  S
Co467      Cl474   2.447       .  S
C478        N496   1.346   1_455  A
C478        C515   1.456       .  S
C478        C634   1.457       .  S
N479        N496   1.323       .  A
N479        N501   1.318   1_655  A
N479       Co516   2.070       .  S
C480        N505   1.337       .  A
C480        C518   1.465       .  S
C480        H525   1.081       .  S
H481        C522   1.081       .  S
C482        N506   1.340       .  A
C482        C486   1.455   1_655  S
C482        H511   1.081       .  S
Co483       N501   2.078       .  S
Co483       N491   2.068       .  S
Co483       N523   2.085       .  S
Co483       N499   2.097       .  S
Co483      Cl527   2.449       .  S
N484        C522   1.339       .  A
N484        N491   1.318       .  A
N484       Co485   2.073       .  S
Co485       N488   2.068       .  S
Co485       N505   2.080       .  S
Co485       N492   2.087       .  S
Co485      Cl527   2.442       .  S
C486        N524   1.346       .  A
C486        C561   1.455       .  S
N487        N494   1.318       .  A
N487        N517   1.322       .  A
N487       Co520   2.068       .  S
N488        N506   1.318   1_455  A
N488        N524   1.322       .  A
N489        C518   1.355       .  A
N489        N499   1.326       .  A
H490        C515   1.081       .  S
N491        N512   1.322       .  A
N492        N510   1.320   1_455  A
N492        N497   1.325       .  A
C493        N497   1.353       .  A
C493        C521   1.468   1_455  S
C493       C1915   1.490       .  S
N494        C509   1.340       .  A
N494       Co516   2.077       .  S
C495        N523   1.340       .  A
C495        C498   1.468       .  S
C495        H529   1.080       .  S
C498        N519   1.353   1_455  A
C498       C1902   1.491       .  S
N499        N505   1.321       .  A
N500        C526   1.338       .  A
N500        N502   1.320       .  A
N500       Co516   2.083       .  S
N501        C515   1.340       .  A
N502        N530   1.324       .  A
N502       Co520   2.091       .  S
H503        C526   1.078       .  S
H504        C521   1.080       .  S
N506       Co520   2.075       .  S
N507        N519   1.324       .  A
N507        N523   1.321   1_655  A
N507       Co516   2.093       .  S
C508        N512   1.345       .  A
C508        C522   1.454       .  S
C509        C528   1.456       .  S
C509        H513   1.081       .  S
N510        C521   1.337       .  A
N510       Co520   2.082       .  S
C514        N530   1.355       .  A
C514        C526   1.469       .  S
C514       C1882   1.493       .  S
Co516      Cl527   2.442   1_655  S
N517        C528   1.345       .  A
C518       C1895   1.487       .  S
Co520      Cl527   2.445   1_655  S
C531        N549   1.346       .  A
C531        C568   1.455   1_556  S
N532        N549   1.323       .  A
N532        N554   1.318   1_556  A
N532       Co569   2.072       .  S
C533        N558   1.340       .  A
C533        C571   1.470       .  S
C533        H578   1.079       .  S
H534        C575   1.081       .  S
C535        N559   1.340       .  A
C535        C539   1.456       .  S
C535        H564   1.081       .  S
Co536       N554   2.076       .  S
Co536       N544   2.074       .  S
Co536       N576   2.087       .  S
Co536       N552   2.093       .  S
Co536      Cl580   2.445   1_654  S
N537        C575   1.338       .  A
N537        N544   1.318   1_455  A
N537       Co538   2.072       .  S
Co538       N541   2.077       .  S
Co538       N558   2.088       .  S
Co538       N545   2.093       .  S
Co538      Cl580   2.448   1_554  S
C539        N577   1.347   1_556  A
N540        N547   1.318   1_455  A
N540        N570   1.323       .  A
N540       Co573   2.074       .  S
N541        N559   1.318   1_554  A
N541        N577   1.324       .  A
N542        C571   1.354   1_655  A
N542        N552   1.324       .  A
H543        C568   1.081       .  S
N544        N565   1.323       .  A
N545        N563   1.320   1_554  A
N545        N550   1.325       .  A
C546        N550   1.355   1_556  A
C546        C574   1.467       .  S
C546       C1862   1.491       .  S
N547        C562   1.339       .  A
N547       Co569   2.072       .  S
C548        N576   1.341       .  A
C548        C551   1.467   1_554  S
C548        H582   1.080       .  S
C551        N572   1.353       .  A
C551       C1845   1.489       .  S
N552        N558   1.321   1_655  A
N553        C579   1.340       .  A
N553        N555   1.320   1_655  A
N553       Co569   2.085       .  S
N554        C568   1.340       .  A
N555        N583   1.323       .  A
N555       Co573   2.087       .  S
H556        C579   1.081       .  S
H557        C574   1.080       .  S
N559       Co573   2.076       .  S
N560        N572   1.324       .  A
N560        N576   1.321   1_556  A
N560       Co569   2.091       .  S
C561        N565   1.346   1_455  A
C561        C575   1.454       .  S
C562        C581   1.454   1_655  S
C562        H566   1.081       .  S
N563        C574   1.339       .  A
N563       Co573   2.082       .  S
C567        N583   1.352       .  A
C567        C579   1.469   1_455  S
C567       C1855   1.489       .  S
Co569      Cl580   2.446   1_655  S
N570        C581   1.347       .  A
C571       C1872   1.493       .  S
Co573      Cl580   2.442       .  S
C584        N602   1.347   1_556  A
C584        C621   1.454       .  S
N585        N602   1.323       .  A
N585        N607   1.318   1_554  A
N585       Co622   2.075       .  S
C586        N611   1.338       .  A
C586        C624   1.467       .  S
C586        H631   1.080       .  S
H587        C628   1.081       .  S
C588        N612   1.340       .  A
C588        C592   1.455       .  S
C588        H617   1.081       .  S
Co589       N607   2.072       .  S
Co589       N597   2.073       .  S
Co589       N629   2.085       .  S
Co589       N605   2.091       .  S
Co589      Cl633   2.451   1_656  S
N590        C628   1.339       .  A
N590        N597   1.318   1_455  A
N590       Co591   2.071       .  S
Co591       N594   2.074       .  S
Co591       N611   2.081       .  S
Co591       N598   2.082       .  S
Co591      Cl633   2.435   1_556  S
C592        N630   1.346   1_554  A
N593        N600   1.319   1_455  A
N593        N623   1.323       .  A
N593       Co626   2.074       .  S
N594        N612   1.318   1_556  A
N594        N630   1.323       .  A
N595        C624   1.354   1_655  A
N595        N605   1.325       .  A
H596        C621   1.081       .  S
N597        N618   1.323       .  A
N598        N616   1.321   1_556  A
N598        N603   1.321       .  A
C599        N603   1.349   1_554  A
C599        C627   1.469       .  S
C599       C1812   1.488   1_554  S
N600        C615   1.340       .  A
N600       Co622   2.077       .  S
C601        N629   1.340       .  A
C601        C604   1.467       .  S
C601        H635   1.081       .  S
C604        N625   1.353   1_556  A
C604       C1802   1.491       .  S
N605        N611   1.320   1_655  A
N606        C632   1.340       .  A
N606        N608   1.322   1_655  A
N606       Co622   2.085       .  S
N607        C621   1.339       .  A
N608        N636   1.324       .  A
N608       Co626   2.095       .  S
H609        C632   1.081       .  S
H610        C627   1.081       .  S
N612       Co626   2.073       .  S
N613        N625   1.324       .  A
N613        N629   1.321   1_554  A
N613       Co622   2.094       .  S
C614        N618   1.347   1_455  A
C614        C628   1.454       .  S
C615        C634   1.455   1_655  S
C615        H619   1.081       .  S
N616        C627   1.345       .  A
N616       Co626   2.093       .  S
C620        N636   1.354       .  A
C620        C632   1.467   1_455  S
C620       C1832   1.492       .  S
Co622      Cl633   2.440   1_655  S
N623        C634   1.346       .  A
C624       C1822   1.491       .  S
Co626      Cl633   2.454       .  S
C637        N655   1.345       .  A
C637        C674   1.456       .  S
C637        C740   1.457       .  S
N638        N655   1.323       .  A
N638        N660   1.319       .  A
N638       Co675   2.072       .  S
C639        N664   1.340       .  A
C639        C677   1.467   1_554  S
C639        H684   1.080       .  S
H640        C681   1.081       .  S
C641        N665   1.339       .  A
C641        C645   1.454       .  S
C641        H670   1.081       .  S
Co642       N660   2.078       .  S
Co642       N650   2.077       .  S
Co642       N682   2.085       .  S
Co642       N658   2.093       .  S
Co642      Cl686   2.440       .  S
N643        C681   1.340       .  A
N643        N650   1.318   1_554  A
N643       Co644   2.075       .  S
Co644       N647   2.070       .  S
Co644       N664   2.084       .  S
Co644       N651   2.095       .  S
Co644      Cl686   2.450   1_554  S
C645        N683   1.345       .  A
C645        C796   1.453       .  S
N646        N653   1.317   1_554  A
N646        N676   1.323       .  A
N646       Co679   2.072       .  S
N647        N665   1.318       .  A
N647        N683   1.322       .  A
N648        C677   1.353       .  A
N648        N658   1.323       .  A
H649        C674   1.081       .  S
N650        N671   1.324       .  A
N651        N669   1.320       .  A
N651        N656   1.325       .  A
C652        N656   1.355       .  A
C652        C680   1.467       .  S
C652       C1785   1.493       .  S
N653        C668   1.340       .  A
N653       Co675   2.073       .  S
C654        N682   1.339       .  A
C654        C657   1.467       .  S
C654        H688   1.081       .  S
C657        N678   1.354       .  A
C657       C1795   1.491       .  S
N658        N664   1.321   1_556  A
N659        C685   1.342       .  A
N659        N661   1.321   1_556  A
N659       Co675   2.089       .  S
N660        C674   1.340       .  A
N661        N689   1.323       .  A
N661       Co679   2.088       .  S
H662        C685   1.081       .  S
H663        C680   1.079       .  S
N665       Co679   2.071       .  S
N666        N678   1.324       .  A
N666        N682   1.321       .  A
N666       Co675   2.093       .  S
C667        N671   1.348       .  A
C667        C681   1.455   1_556  S
C667        C849   1.460       .  S
C668        C687   1.455       .  S
C668        H672   1.081       .  S
N669        C680   1.339       .  A
N669       Co679   2.080       .  S
C673        N689   1.352   1_556  A
C673        C685   1.468       .  S
C673       C1772   1.488       .  S
Co675      Cl686   2.450       .  S
N676        C687   1.346   1_554  A
C677       C1762   1.488       .  S
Co679      Cl686   2.440   1_554  S
C687        C952   1.456       .  S
C690        N708   1.346       .  A
C690        C727   1.454   1_565  S
C690        C910   1.456       .  S
N691        N708   1.323       .  A
N691        N713   1.318   1_565  A
N691       Co728   2.075       .  S
C692        N717   1.337       .  A
C692        C730   1.465       .  S
C692        H737   1.080       .  S
H693        C734   1.081       .  S
C694        N718   1.339       .  A
C694        C698   1.453       .  S
C694        H723   1.081       .  S
Co695       N713   2.073       .  S
Co695       N703   2.074       .  S
Co695       N735   2.093       .  S
Co695       N711   2.098       .  S
Co695      Cl739   2.454   1_545  S
N696        C734   1.340       .  A
N696        N703   1.319       .  A
N696       Co697   2.079       .  S
Co697       N700   2.074       .  S
Co697       N717   2.080       .  S
Co697       N704   2.090       .  S
Co697      Cl739   2.439   1_545  S
C698        N736   1.347   1_565  A
C698        C879   1.455       .  S
N699        N706   1.318       .  A
N699        N729   1.323       .  A
N699       Co732   2.071       .  S
N700        N718   1.318   1_545  A
N700        N736   1.323       .  A
N701        C730   1.356       .  A
N701        N711   1.326       .  A
H702        C727   1.081       .  S
N703        N724   1.324       .  A
N704        N722   1.320   1_545  A
N704        N709   1.324       .  A
C705        N709   1.353   1_565  A
C705        C733   1.468       .  S
C705       C1732   1.489       .  S
N706        C721   1.340       .  A
N706       Co728   2.076       .  S
C707        N735   1.343       .  A
C707        C710   1.469   1_545  S
C707        H741   1.081       .  S
C710        N731   1.350       .  A
C710       C1722   1.490       .  S
N711        N717   1.321       .  A
N712        C738   1.340       .  A
N712        N714   1.320       .  A
N712       Co728   2.085       .  S
N713        C727   1.339       .  A
N714        N742   1.323       .  A
N714       Co732   2.088       .  S
H715        C738   1.081       .  S
H716        C733   1.080       .  S
N718       Co732   2.070       .  S
N719        N731   1.322       .  A
N719        N735   1.322   1_565  A
N719       Co728   2.086       .  S
C720        N724   1.346       .  A
C720        C734   1.456       .  S
C720        C743   1.459       .  S
C721        C740   1.456       .  S
C721        H725   1.081       .  S
N722        C733   1.339       .  A
N722       Co732   2.082       .  S
C726        N742   1.353       .  A
C726        C738   1.468       .  S
C726       C1752   1.490       .  S
Co728      Cl739   2.439       .  S
N729        C740   1.346       .  A
C730       C1742   1.490       .  S
Co732      Cl739   2.448       .  S
C743        N761   1.346       .  A
C743        C780   1.457       .  S
N744        N761   1.323       .  A
N744        N766   1.318       .  A
N744       Co781   2.071       .  S
C745        N770   1.342       .  A
C745        C783   1.469       .  S
C745        H790   1.081       .  S
H746        C787   1.081       .  S
C747        N771   1.341       .  A
C747        C751   1.457       .  S
C747        H776   1.081       .  S
Co748       N766   2.080       .  S
Co748       N756   2.072       .  S
Co748       N788   2.082       .  S
Co748       N764   2.091       .  S
Co748      Cl792   2.439   1_556  S
N749        C787   1.339       .  A
N749        N756   1.318   1_554  A
N749       Co750   2.073       .  S
Co750       N753   2.073       .  S
Co750       N770   2.088       .  S
Co750       N757   2.094       .  S
Co750      Cl792   2.453       .  S
C751        N789   1.346       .  A
C751        C804   1.460       .  S
N752        N759   1.318   1_554  A
N752        N782   1.323       .  A
N752       Co785   2.074       .  S
N753        N771   1.318       .  A
N753        N789   1.323       .  A
N754        C783   1.352   1_556  A
N754        N764   1.323       .  A
H755        C780   1.081       .  S
N756        N777   1.322       .  A
N757        N775   1.320       .  A
N757        N762   1.325       .  A
C758        N762   1.355       .  A
C758        C786   1.467       .  S
C758       C1712   1.490       .  S
N759        C774   1.339       .  A
N759       Co781   2.073       .  S
C760        N788   1.339       .  A
C760        C763   1.466       .  S
C760        H794   1.080       .  S
C763        N784   1.355       .  A
C763       C1702   1.490       .  S
N764        N770   1.321   1_556  A
N765        C791   1.341       .  A
N765        N767   1.321   1_556  A
N765       Co781   2.086       .  S
N766        C780   1.341       .  A
N767        N795   1.323       .  A
N767       Co785   2.089       .  S
H768        C791   1.081       .  S
H769        C786   1.080       .  S
N771       Co785   2.080       .  S
N772        N784   1.325       .  A
N772        N788   1.321       .  A
N772       Co781   2.095       .  S
C773        N777   1.346   1_554  A
C773        C787   1.454       .  S
C773        C932   1.454       .  S
C774        C793   1.454       .  S
C774        H778   1.081       .  S
N775        C786   1.338       .  A
N775       Co785   2.083       .  S
C779        N795   1.352   1_556  A
C779        C791   1.468       .  S
C779       C1692   1.491       .  S
Co781      Cl792   2.451   1_556  S
N782        C793   1.347   1_554  A
C783       C1682   1.491       .  S
Co785      Cl792   2.440       .  S
C793        C857   1.455       .  S
C796        N814   1.345       .  A
C796        C833   1.454       .  S
N797        N814   1.322       .  A
N797        N819   1.318       .  A
N797       Co834   2.070       .  S
C798        N823   1.339       .  A
C798        C836   1.467   1_545  S
C798        H843   1.079       .  S
H799        C840   1.081       .  S
C800        N824   1.340       .  A
C800        C804   1.457       .  S
C800        H829   1.081       .  S
Co801       N819   2.072       .  S
Co801       N809   2.074       .  S
Co801       N841   2.087       .  S
Co801       N817   2.092       .  S
Co801      Cl845   2.447       .  S
N802        C840   1.339       .  A
N802        N809   1.318   1_545  A
N802       Co803   2.071       .  S
Co803       N806   2.073       .  S
Co803       N823   2.083       .  S
Co803       N810   2.087       .  S
Co803      Cl845   2.445   1_545  S
C804        N842   1.346       .  A
N805        N812   1.318   1_545  A
N805        N835   1.324       .  A
N805       Co838   2.079       .  S
N806        N824   1.318       .  A
N806        N842   1.324       .  A
N807        C836   1.355       .  A
N807        N817   1.325       .  A
H808        C833   1.081       .  S
N809        N830   1.323       .  A
N810        N828   1.320       .  A
N810        N815   1.324       .  A
C811        N815   1.352       .  A
C811        C839   1.466       .  S
C811       C1642   1.477       .  S
N812        C827   1.340       .  A
N812       Co834   2.074       .  S
C813        N841   1.341       .  A
C813        C816   1.468       .  S
C813        H847   1.081       .  S
C816        N837   1.352       .  A
C816       C1652   1.490       .  S
N817        N823   1.320   1_565  A
N818        C844   1.340       .  A
N818        N820   1.320   1_565  A
N818       Co834   2.083       .  S
N819        C833   1.339       .  A
N820        N848   1.324       .  A
N820       Co838   2.091       .  S
H821        C844   1.080       .  S
H822        C839   1.082       .  S
N824       Co838   2.079       .  S
N825        N837   1.323       .  A
N825        N841   1.321       .  A
N825       Co834   2.089       .  S
C826        N830   1.346       .  A
C826        C840   1.454   1_565  S
C826        C899   1.455       .  S
C827        C846   1.455       .  S
C827        H831   1.081       .  S
N828        C839   1.338       .  A
N828       Co838   2.086       .  S
C832        N848   1.354   1_565  A
C832        C844   1.468       .  S
C832       C1672   1.490       .  S
Co834      Cl845   2.443       .  S
N835        C846   1.348   1_545  A
C836       C1662   1.491       .  S
Co838      Cl845   2.443   1_545  S
C846        C902   1.459       .  S
C849        N867   1.348   1_556  A
C849        C886   1.454       .  S
N850        N867   1.324       .  A
N850        N872   1.319   1_554  A
N850       Co887   2.083       .  S
C851        N876   1.337       .  A
C851        C889   1.466   1_545  S
C851        H896   1.080       .  S
H852        C893   1.081       .  S
C853        N877   1.338       .  A
C853        C857   1.453   1_554  S
C853        H882   1.081       .  S
Co854       N872   2.073       .  S
Co854       N862   2.077       .  S
Co854       N894   2.096       .  S
Co854       N870   2.096       .  S
Co854      Cl898   2.456       .  S
N855        C893   1.338       .  A
N855        N862   1.318   1_545  A
N855       Co856   2.069       .  S
Co856       N859   2.077       .  S
Co856       N876   2.082       .  S
Co856       N863   2.086       .  S
Co856      Cl898   2.437   1_545  S
C857        N895   1.348       .  A
N858        N865   1.318   1_545  A
N858        N888   1.323       .  A
N858       Co891   2.076       .  S
N859        N877   1.317   1_556  A
N859        N895   1.324       .  A
N860        C889   1.355       .  A
N860        N870   1.326       .  A
H861        C886   1.081       .  S
N862        N883   1.323       .  A
N863        N881   1.320   1_556  A
N863        N868   1.323       .  A
C864        N868   1.352       .  A
C864        C892   1.468   1_556  S
C864       C1612   1.490       .  S
N865        C880   1.338       .  A
N865       Co887   2.068       .  S
C866        N894   1.344       .  A
C866        C869   1.469       .  S
C866        H900   1.081       .  S
C869        N890   1.349   1_556  A
C869       C1602   1.488       .  S
N870        N876   1.321   1_565  A
N871        C897   1.342       .  A
N871        N873   1.320   1_565  A
N871       Co887   2.091       .  S
N872        C886   1.339       .  A
N873        N901   1.322       .  A
N873       Co891   2.081       .  S
H874        C897   1.081       .  S
H875        C892   1.081       .  S
N877       Co891   2.066       .  S
N878        N890   1.321       .  A
N878        N894   1.322   1_554  A
N878       Co887   2.084       .  S
C879        N883   1.347       .  A
C879        C893   1.452   1_565  S
C880        C899   1.453       .  S
C880        H884   1.081       .  S
N881        C892   1.341       .  A
N881       Co891   2.086       .  S
C885        N901   1.350   1_565  A
C885        C897   1.469       .  S
C885       C1632   1.489       .  S
Co887      Cl898   2.439   1_554  S
N888        C899   1.347   1_545  A
C889       C1622   1.492       .  S
Co891      Cl898   2.446   1_544  S
C902        N920   1.348       .  A
C902        C939   1.454   1_565  S
N903        N920   1.324       .  A
N903        N925   1.319   1_565  A
N903       Co940   2.081       .  S
C904        N929   1.337       .  A
C904        C942   1.466   1_556  S
C904        H949   1.079       .  S
H905        C946   1.081       .  S
C906        N930   1.339       .  A
C906        C910   1.454       .  S
C906        H935   1.081       .  S
Co907       N925   2.073       .  S
Co907       N915   2.074       .  S
Co907       N947   2.091       .  S
Co907       N923   2.099       .  S
Co907      Cl951   2.452   1_545  S
N908        C946   1.338       .  A
N908        N915   1.318   1_556  A
N908       Co909   2.070       .  S
Co909       N912   2.073       .  S
Co909       N929   2.076       .  S
Co909       N916   2.083       .  S
Co909      Cl951   2.436   1_546  S
C910        N948   1.347   1_565  A
N911        N918   1.318   1_556  A
N911        N941   1.323       .  A
N911       Co944   2.074       .  S
N912        N930   1.317   1_545  A
N912        N948   1.323       .  A
N913        C942   1.357       .  A
N913        N923   1.326       .  A
H914        C939   1.081       .  S
N915        N936   1.323       .  A
N916        N934   1.320   1_545  A
N916        N921   1.322       .  A
C917        N921   1.351   1_565  A
C917        C945   1.467       .  S
C917       C1585   1.487       .  S
N918        C933   1.339       .  A
N918       Co940   2.073       .  S
C919        N947   1.342       .  A
C919        C922   1.469   1_545  S
C919        H953   1.080       .  S
C922        N943   1.352       .  A
C922       C1595   1.491       .  S
N923        N929   1.320   1_554  A
N924        C950   1.342       .  A
N924        N926   1.321   1_554  A
N924       Co940   2.091       .  S
N925        C939   1.339       .  A
N926        N954   1.323       .  A
N926       Co944   2.087       .  S
H927        C950   1.081       .  S
H928        C945   1.081       .  S
N930       Co944   2.070       .  S
N931        N943   1.323       .  A
N931        N947   1.322   1_565  A
N931       Co940   2.090       .  S
C932        N936   1.347       .  A
C932        C946   1.453   1_554  S
C933        C952   1.455   1_554  S
C933        H937   1.081       .  S
N934        C945   1.342       .  A
N934       Co944   2.087       .  S
C938        N954   1.352       .  A
C938        C950   1.468   1_556  S
C938       C1572   1.488       .  S
Co940      Cl951   2.442       .  S
N941        C952   1.346       .  A
C942       C1562   1.493       .  S
Co944      Cl951   2.448   1_556  S
C955        N973   1.347   1_455  A
C955        C992   1.455       .  S
C955       C1220   1.457       .  S
N956        N973   1.324       .  A
N956        N978   1.318   1_655  A
N956       Co993   2.075       .  S
C957        N982   1.339       .  A
C957        C995   1.467       .  S
C957       H1002   1.081       .  S
H958        C999   1.081       .  S
C959        N983   1.339       .  A
C959        C963   1.455   1_655  S
C959        H988   1.081       .  S
Co960       N978   2.075       .  S
Co960       N968   2.072       .  S
Co960      N1000   2.081       .  S
Co960       N976   2.090       .  S
Co960     Cl1004   2.442       .  S
N961        C999   1.337       .  A
N961        N968   1.318       .  A
N961       Co962   2.069       .  S
Co962       N965   2.072       .  S
Co962       N982   2.082       .  S
Co962       N969   2.086       .  S
Co962     Cl1004   2.445       .  S
C963       N1001   1.346       .  A
C963       C1167   1.456       .  S
N964        N971   1.319       .  A
N964        N994   1.324       .  A
N964       Co997   2.078       .  S
N965        N983   1.318   1_455  A
N965       N1001   1.323       .  A
N966        C995   1.353       .  A
N966        N976   1.324       .  A
H967        C992   1.081       .  S
N968        N989   1.323       .  A
N969        N987   1.320   1_455  A
N969        N974   1.323       .  A
C970        N974   1.353       .  A
C970        C998   1.468   1_455  S
C970       C1532   1.489       .  S
N971        C986   1.339       .  A
N971       Co993   2.074       .  S
C972       N1000   1.338       .  A
C972        C975   1.466       .  S
C972       H1006   1.081       .  S
C975        N996   1.355   1_455  A
C975       C1542   1.491       .  S
N976        N982   1.320       .  A
N977       C1003   1.342       .  A
N977        N979   1.322       .  A
N977       Co993   2.092       .  S
N978        C992   1.339       .  A
N979       N1007   1.322       .  A
N979       Co997   2.087       .  S
H980       C1003   1.081       .  S
H981        C998   1.080       .  S
N983       Co997   2.073       .  S
N984        N996   1.325       .  A
N984       N1000   1.321   1_655  A
N984       Co993   2.097       .  S
C985        N989   1.346       .  A
C985        C999   1.453       .  S
C985       C1061   1.453       .  S
C986       C1005   1.454       .  S
C986        H990   1.081       .  S
N987        C998   1.341       .  A
N987       Co997   2.089       .  S
C991       N1007   1.351       .  A
C991       C1003   1.468       .  S
C991       C1552   1.489       .  S
Co993     Cl1004   2.451   1_655  S
N994       C1005   1.347       .  A
C995       C1522   1.489       .  S
Co997     Cl1004   2.442   1_655  S
C1005      C1058   1.458       .  S
C1008      N1026   1.346       .  A
C1008      C1045   1.454   1_565  S
C1008      C1217   1.455       .  S
N1009      N1026   1.323       .  A
N1009      N1031   1.318   1_565  A
N1009     Co1046   2.072       .  S
C1010      N1035   1.339       .  A
C1010      C1048   1.468       .  S
C1010      H1055   1.079       .  S
H1011      C1052   1.081       .  S
C1012      N1036   1.339       .  A
C1012      C1016   1.456       .  S
C1012      H1041   1.081       .  S
Co1013     N1031   2.074       .  S
Co1013     N1021   2.069       .  S
Co1013     N1053   2.078       .  S
Co1013     N1029   2.091       .  S
Co1013    Cl1057   2.440   1_545  S
N1014      C1052   1.339       .  A
N1014      N1021   1.317       .  A
N1014     Co1015   2.071       .  S
Co1015     N1018   2.068       .  S
Co1015     N1035   2.078       .  S
Co1015     N1022   2.086       .  S
Co1015    Cl1057   2.445   1_545  S
C1016      N1054   1.345   1_565  A
C1016      C1250   1.455       .  S
N1017      N1024   1.319       .  A
N1017      N1047   1.323       .  A
N1017     Co1050   2.076       .  S
N1018      N1036   1.318   1_545  A
N1018      N1054   1.322       .  A
N1019      C1048   1.355       .  A
N1019      N1029   1.323       .  A
H1020      C1045   1.081       .  S
N1021      N1042   1.323       .  A
N1022      N1040   1.320   1_545  A
N1022      N1027   1.322       .  A
C1023      N1027   1.352   1_565  A
C1023      C1051   1.468       .  S
C1023      C1502   1.488       .  S
N1024      C1039   1.340       .  A
N1024     Co1046   2.076       .  S
C1025      N1053   1.337       .  A
C1025      C1028   1.467   1_545  S
C1025      H1059   1.078       .  S
C1028      N1049   1.357       .  A
C1028      C1495   1.495       .  S
N1029      N1035   1.319       .  A
N1030      C1056   1.342       .  A
N1030      N1032   1.322       .  A
N1030     Co1046   2.091       .  S
N1031      C1045   1.339       .  A
N1032      N1060   1.323       .  A
N1032     Co1050   2.092       .  S
H1033      C1056   1.081       .  S
H1034      C1051   1.081       .  S
N1036     Co1050   2.075       .  S
N1037      N1049   1.326       .  A
N1037      N1053   1.320   1_565  A
N1037     Co1046   2.100       .  S
C1038      N1042   1.346       .  A
C1038      C1052   1.455       .  S
C1038      C1114   1.455       .  S
C1039      C1058   1.455       .  S
C1039      H1043   1.081       .  S
N1040      C1051   1.341       .  A
N1040     Co1050   2.087       .  S
C1044      N1060   1.352       .  A
C1044      C1056   1.468       .  S
C1044      C1512   1.489       .  S
Co1046    Cl1057   2.450       .  S
N1047      C1058   1.347       .  A
C1048      C1482   1.491       .  S
Co1050    Cl1057   2.443       .  S
C1061      N1079   1.345       .  A
C1061      C1098   1.454       .  S
N1062      N1079   1.322       .  A
N1062      N1084   1.318       .  A
N1062     Co1099   2.068       .  S
C1063      N1088   1.338       .  A
C1063      C1101   1.467   1_545  S
C1063      H1108   1.080       .  S
H1064      C1105   1.081       .  S
C1065      N1089   1.338       .  A
C1065      C1069   1.454       .  S
C1065      H1094   1.081       .  S
Co1066     N1084   2.072       .  S
Co1066     N1074   2.070       .  S
Co1066     N1106   2.088       .  S
Co1066     N1082   2.093       .  S
Co1066    Cl1110   2.456       .  S
N1067      C1105   1.341       .  A
N1067      N1074   1.318   1_545  A
N1067     Co1068   2.081       .  S
Co1068     N1071   2.074       .  S
Co1068     N1088   2.083       .  S
Co1068     N1075   2.090       .  S
Co1068    Cl1110   2.435   1_545  S
C1069      N1107   1.346       .  A
C1069      C1122   1.456       .  S
N1070      N1077   1.318   1_545  A
N1070      N1100   1.323       .  A
N1070     Co1103   2.069       .  S
N1071      N1089   1.319       .  A
N1071      N1107   1.324       .  A
N1072      C1101   1.355       .  A
N1072      N1082   1.325       .  A
H1073      C1098   1.081       .  S
N1074      N1095   1.323       .  A
N1075      N1093   1.321       .  A
N1075      N1080   1.322       .  A
C1076      N1080   1.352       .  A
C1076      C1104   1.469       .  S
C1076      C1452   1.490       .  S
N1077      C1092   1.340       .  A
N1077     Co1099   2.078       .  S
C1078      N1106   1.342       .  A
C1078      C1081   1.469       .  S
C1078      H1112   1.081       .  S
C1081      N1102   1.351       .  A
C1081      C1462   1.489       .  S
N1082      N1088   1.320   1_565  A
N1083      C1109   1.335       .  A
N1083      N1085   1.320   1_565  A
N1083     Co1099   2.073       .  S
N1084      C1098   1.339       .  A
N1085      N1113   1.326       .  A
N1085     Co1103   2.099       .  S
H1086      C1109   1.078       .  S
H1087      C1104   1.081       .  S
N1089     Co1103   2.074       .  S
N1090      N1102   1.322       .  A
N1090      N1106   1.320       .  A
N1090     Co1099   2.085       .  S
C1091      N1095   1.345       .  A
C1091      C1105   1.457   1_565  S
C1091      C1270   1.459       .  S
C1092      C1111   1.456       .  S
C1092      H1096   1.081       .  S
N1093      C1104   1.342       .  A
N1093     Co1103   2.088       .  S
C1097      N1113   1.358   1_565  A
C1097      C1109   1.465       .  S
C1097      C1472   1.494       .  S
Co1099    Cl1110   2.430       .  S
N1100      C1111   1.346   1_545  A
C1101      C1442   1.490       .  S
Co1103    Cl1110   2.457   1_545  S
C1111      C1197   1.457       .  S
C1114      N1132   1.345       .  A
C1114      C1151   1.456       .  S
N1115      N1132   1.322       .  A
N1115      N1137   1.318       .  A
N1115     Co1152   2.067       .  S
C1116      N1141   1.338       .  A
C1116      C1154   1.463       .  S
C1116      H1161   1.082       .  S
H1117      C1158   1.081       .  S
C1118      N1142   1.341       .  A
C1118      C1122   1.456       .  S
C1118      H1147   1.081       .  S
Co1119     N1137   2.077       .  S
Co1119     N1127   2.066       .  S
Co1119     N1159   2.082       .  S
Co1119     N1135   2.093       .  S
Co1119    Cl1163   2.449   1_655  S
N1120      C1158   1.342       .  A
N1120      N1127   1.318   1_455  A
N1120     Co1121   2.083       .  S
Co1121     N1124   2.069       .  S
Co1121     N1141   2.080       .  S
Co1121     N1128   2.094       .  S
Co1121    Cl1163   2.439       .  S
C1122      N1160   1.345       .  A
N1123      N1130   1.318   1_455  A
N1123      N1153   1.322       .  A
N1123     Co1156   2.065       .  S
N1124      N1142   1.318       .  A
N1124      N1160   1.322       .  A
N1125      C1154   1.353   1_655  A
N1125      N1135   1.325       .  A
H1126      C1151   1.081       .  S
N1127      N1148   1.322       .  A
N1128      N1146   1.321       .  A
N1128      N1133   1.324       .  A
C1129      N1133   1.353       .  A
C1129      C1157   1.468       .  S
C1129      C1422   1.491       .  S
N1130      C1145   1.341       .  A
N1130     Co1152   2.082       .  S
C1131      N1159   1.340       .  A
C1131      C1134   1.467       .  S
C1131      H1165   1.081       .  S
C1134      N1155   1.353       .  A
C1134      C1415   1.491       .  S
N1135      N1141   1.321   1_655  A
N1136      C1162   1.336       .  A
N1136      N1138   1.320   1_655  A
N1136     Co1152   2.076       .  S
N1137      C1151   1.340       .  A
N1138      N1166   1.325       .  A
N1138     Co1156   2.097       .  S
H1139      C1162   1.079       .  S
H1140      C1157   1.081       .  S
N1142     Co1156   2.078       .  S
N1143      N1155   1.324       .  A
N1143      N1159   1.320       .  A
N1143     Co1152   2.092       .  S
C1144      N1148   1.344   1_455  A
C1144      C1158   1.458       .  S
C1144      C1175   1.458       .  S
C1145      C1164   1.457   1_655  S
C1145      H1149   1.081       .  S
N1146      C1157   1.340       .  A
N1146     Co1156   2.083       .  S
C1150      N1166   1.356   1_655  A
C1150      C1162   1.466       .  S
C1150      C1405   1.491       .  S
Co1152    Cl1163   2.438   1_655  S
N1153      C1164   1.344       .  A
C1154      C1432   1.480       .  S
Co1156    Cl1163   2.452       .  S
C1164      C1228   1.456       .  S
C1167      N1185   1.345   1_455  A
C1167      C1204   1.457       .  S
N1168      N1185   1.322       .  A
N1168      N1190   1.318   1_655  A
N1168     Co1205   2.067       .  S
C1169      N1194   1.340       .  A
C1169      C1207   1.468   1_545  S
C1169      H1214   1.081       .  S
H1170      C1211   1.081       .  S
C1171      N1195   1.340       .  A
C1171      C1175   1.456   1_655  S
C1171      H1200   1.081       .  S
Co1172     N1190   2.077       .  S
Co1172     N1180   2.071       .  S
Co1172     N1212   2.088       .  S
Co1172     N1188   2.094       .  S
Co1172    Cl1216   2.447       .  S
N1173      C1211   1.341       .  A
N1173      N1180   1.319   1_545  A
N1173     Co1174   2.080       .  S
Co1174     N1177   2.071       .  S
Co1174     N1194   2.085       .  S
Co1174     N1181   2.098       .  S
Co1174    Cl1216   2.448   1_545  S
C1175      N1213   1.346       .  A
N1176      N1183   1.318   1_545  A
N1176      N1206   1.323       .  A
N1176     Co1209   2.071       .  S
N1177      N1195   1.319   1_455  A
N1177      N1213   1.324       .  A
N1178      C1207   1.354       .  A
N1178      N1188   1.324       .  A
H1179      C1204   1.081       .  S
N1180      N1201   1.323       .  A
N1181      N1199   1.321   1_455  A
N1181      N1186   1.325       .  A
C1182      N1186   1.355   1_655  A
C1182      C1210   1.466       .  S
C1182      C1392   1.490       .  S
N1183      C1198   1.339       .  A
N1183     Co1205   2.072       .  S
C1184      N1212   1.341       .  A
C1184      C1187   1.468       .  S
C1184      H1218   1.081       .  S
C1187      N1208   1.351   1_455  A
C1187      C1372   1.489       .  S
N1188      N1194   1.321   1_565  A
N1189      C1215   1.338       .  A
N1189      N1191   1.319   1_565  A
N1189     Co1205   2.077       .  S
N1190      C1204   1.341       .  A
N1191      N1219   1.325       .  A
N1191     Co1209   2.095       .  S
H1192      C1215   1.079       .  S
H1193      C1210   1.080       .  S
N1195     Co1209   2.081       .  S
N1196      N1208   1.323       .  A
N1196      N1212   1.321   1_655  A
N1196     Co1205   2.086       .  S
C1197      N1201   1.345       .  A
C1197      C1211   1.456   1_565  S
C1198      C1217   1.454       .  S
C1198      H1202   1.081       .  S
N1199      C1210   1.338       .  A
N1199     Co1209   2.081       .  S
C1203      N1219   1.356   1_565  A
C1203      C1215   1.467       .  S
C1203      C1382   1.493       .  S
Co1205    Cl1216   2.440   1_655  S
N1206      C1217   1.346   1_545  A
C1207      C1365   1.491       .  S
Co1209    Cl1216   2.445   1_645  S
C1220      N1238   1.345       .  A
C1220      C1257   1.457   1_455  S
N1221      N1238   1.322       .  A
N1221      N1243   1.318   1_455  A
N1221     Co1258   2.067       .  S
C1222      N1247   1.342       .  A
C1222      C1260   1.468   1_545  S
C1222      H1267   1.080       .  S
H1223      C1264   1.081       .  S
C1224      N1248   1.340       .  A
C1224      C1228   1.457       .  S
C1224      H1253   1.081       .  S
Co1225     N1243   2.081       .  S
Co1225     N1233   2.065       .  S
Co1225     N1265   2.074       .  S
Co1225     N1241   2.090       .  S
Co1225    Cl1269   2.440   1_655  S
N1226      C1264   1.340       .  A
N1226      N1233   1.318   1_545  A
N1226     Co1227   2.079       .  S
Co1227     N1230   2.067       .  S
Co1227     N1247   2.086       .  S
Co1227     N1234   2.096       .  S
Co1227    Cl1269   2.449   1_645  S
C1228      N1266   1.345   1_455  A
N1229      N1236   1.319   1_545  A
N1229      N1259   1.323       .  A
N1229     Co1262   2.067       .  S
N1230      N1248   1.319   1_655  A
N1230      N1266   1.322       .  A
N1231      C1260   1.353       .  A
N1231      N1241   1.323       .  A
H1232      C1257   1.081       .  S
N1233      N1254   1.322       .  A
N1234      N1252   1.322   1_655  A
N1234      N1239   1.325       .  A
C1235      N1239   1.354   1_455  A
C1235      C1263   1.467       .  S
C1235      C1332   1.491       .  S
N1236      C1251   1.341       .  A
N1236     Co1258   2.085       .  S
C1237      N1265   1.337       .  A
C1237      C1240   1.467   1_655  S
C1237      H1271   1.078       .  S
C1240      N1261   1.356       .  A
C1240      C1352   1.493       .  S
N1241      N1247   1.320   1_565  A
N1242      C1268   1.336       .  A
N1242      N1244   1.321   1_565  A
N1242     Co1258   2.076       .  S
N1243      C1257   1.341       .  A
N1244      N1272   1.326       .  A
N1244     Co1262   2.099       .  S
H1245      C1268   1.079       .  S
H1246      C1263   1.080       .  S
N1248     Co1262   2.082       .  S
N1249      N1261   1.325       .  A
N1249      N1265   1.319   1_455  A
N1249     Co1258   2.095       .  S
C1250      N1254   1.344       .  A
C1250      C1264   1.457   1_565  S
C1251      C1270   1.458       .  S
C1251      H1255   1.081       .  S
N1252      C1263   1.339       .  A
N1252     Co1262   2.085       .  S
C1256      N1272   1.356   1_565  A
C1256      C1268   1.464       .  S
C1256      C1342   1.490       .  S
Co1258    Cl1269   2.443       .  S
N1259      C1270   1.345   1_545  A
C1260      C1325   1.489       .  S
Co1262    Cl1269   2.447   1_545  S
C1273      C1274   1.367       .  D
C1273      C1875   1.492       .  S
C1273      C1912   1.487       .  S
C1274      C1395   1.491       .  S
C1274      C1435   1.511   1_655  S
C1275      C1276   1.357       .  D
C1275      C1592   1.487       .  S
C1275      C1675   1.486       .  S
C1276      C1385   1.484       .  S
C1276      C1492   1.485       .  S
C1277      C1278   1.358       .  D
C1277      C1835   1.486       .  S
C1277      C1905   1.485       .  S
C1278      C1375   1.486       .  S
C1278      C1535   1.487       .  S
C1279      C1280   1.358       .  D
C1279      C1362   1.486       .  S
C1279      C1475   1.484       .  S
C1280      C1635   1.485       .  S
C1280      C1665   1.487       .  S
C1281      C1282   1.357       .  D
C1281      C2072   1.487       .  S
C1281      C2265   1.487       .  S
C1282      C1425   1.485       .  S
C1282      C1455   1.484       .  S
C1283      C1284   1.357       .  D
C1283      C2145   1.485       .  S
C1283      C2275   1.487       .  S
C1284      C1412   1.486       .  S
C1284      C1485   1.485       .  S
C1285      C1286   1.356       .  D
C1285      C2065   1.485       .  S
C1285      C2185   1.484       .  S
C1286      C1465   1.485       .  S
C1286      C1525   1.484       .  S
C1287      C1288   1.356       .  D
C1287      C1625   1.485       .  S
C1287      C1735   1.484       .  S
C1288      C1345   1.487       .  S
C1288      C1445   1.485       .  S
C1289      C1290   1.356       .  D
C1289      C1865   1.485       .  S
C1289      C1955   1.485       .  S
C1290      C1615   1.484       .  S
C1290      C1695   1.484       .  S
C1291      C1292   1.357       .  D
C1291      C1815   1.487       .  S
C1291      C1945   1.485       .  S
C1292      C1605   1.487       .  S
C1292      C1765   1.487       .  S
C1293      C1294   1.357       .  D
C1293      C2195   1.488       .  S
C1293      C2235   1.488       .  S
C1294      C1655   1.484       .  S
C1294      C1782   1.485       .  S
C1295      C1296   1.367       .  D
C1295      C2225   1.490       .  S
C1295      C2255   1.484       .  S
C1296      C1645   1.517       .  S
C1296      C1715   1.493       .  S
C1297      C1298   1.359       .  D
C1297      C2112   1.487       .  S
C1297      C2245   1.488       .  S
C1298      C1705   1.488       .  S
C1298      C1745   1.487       .  S
C1299      C1300   1.356       .  D
C1299      C1852   1.483       .  S
C1299      C1972   1.485       .  S
C1300      C1335   1.487       .  S
C1300      C1402   1.484       .  S
C1301      C1302   1.358       .  D
C1301      C1842   1.490   1_554  S
C1301      C2005   1.486       .  S
C1302      C1565   1.486       .  S
C1302      C1685   1.486       .  S
C1303      C1304   1.359       .  D
C1303      C2052   1.486       .  S
C1303      C2215   1.486       .  S
C1304      C1892   1.490       .  S
C1304      C1935   1.486       .  S
C1305      C1306   1.356       .  D
C1305      C2155   1.486       .  S
C1305      C2205   1.484       .  S
C1306      C1885   1.484       .  S
C1306      C2025   1.484       .  S
C1307      C1308   1.358       .  D
C1307      C2045   1.488       .  S
C1307      C2102   1.487       .  S
C1308      C1925   1.485       .  S
C1308      C1965   1.486       .  S
C1309      C1310   1.356       .  D
C1309      C1825   1.484       .  S
C1309      C1982   1.484       .  S
C1310      C1355   1.484       .  S
C1310      C1545   1.485       .  S
C1311      C1312   1.357       .  D
C1311      C1582   1.486       .  S
C1311      C1725   1.486       .  S
C1312      C1322   1.487       .  S
C1312      C1505   1.484       .  S
C1313      C1314   1.357       .  D
C1313      C1575   1.488       .  S
C1313      C1775   1.488       .  S
C1314      C1805   1.485       .  S
C1314      C2012   1.485       .  S
C1315      C1316   1.357       .  D
C1315      C2095   1.485       .  S
C1315      C2135   1.486       .  S
C1316      C1995   1.486       .  S
C1316      C2032   1.485       .  S
C1317      C1318   1.358       .  D
C1317      C2125   1.486       .  S
C1317      C2162   1.486       .  S
C1318      C1515   1.488       .  S
C1318      C1555   1.487       .  S
C1319      C1320   1.356       .  D
C1319      C2085   1.486       .  S
C1319      C2175   1.486       .  S
C1320      C1755   1.484       .  S
C1320      C1792   1.485       .  S
C1321      H1328   1.083       .  S
C1321      C1322   1.403   1_545  A
C1321      C1326   1.404       .  A
C1322      C1323   1.402       .  A
C1323      C1324   1.396       .  A
C1323      F1330   1.357       .  S
C1324      H1329   1.082       .  S
C1324      C1325   1.408       .  A
C1325      C1326   1.411   1_565  A
C1326      F1327   1.356       .  S
C1331      H1338   1.080       .  S
C1331      C1332   1.409       .  A
C1331      C1336   1.398       .  A
C1332      C1333   1.410   1_455  A
C1333      C1334   1.402       .  A
C1333      F1340   1.357       .  S
C1334      H1339   1.082       .  S
C1334      C1335   1.403   1_655  A
C1335      C1336   1.401       .  A
C1336      F1337   1.357       .  S
C1341      H1348   1.083       .  S
C1341      C1342   1.407   1_545  A
C1341      C1346   1.404       .  A
C1342      C1343   1.415       .  A
C1343      C1344   1.395       .  A
C1343      F1350   1.355       .  S
C1344      H1349   1.083       .  S
C1344      C1345   1.398       .  A
C1345      C1346   1.406   1_565  A
C1346      F1347   1.356       .  S
C1351      H1358   1.083       .  S
C1351      C1352   1.409       .  A
C1351      C1356   1.401       .  A
C1352      C1353   1.415   1_455  A
C1353      C1354   1.397       .  A
C1353      F1360   1.354       .  S
C1354      H1359   1.083       .  S
C1354      C1355   1.398   1_655  A
C1355      C1356   1.403       .  A
C1356      F1357   1.356       .  S
C1361      H1368   1.082       .  S
C1361      C1362   1.402       .  A
C1361      C1366   1.400       .  A
C1362      C1363   1.402   1_565  A
C1363      C1364   1.401       .  A
C1363      F1370   1.357       .  S
C1364      H1369   1.080       .  S
C1364      C1365   1.410   1_545  A
C1365      C1366   1.411       .  A
C1366      F1367   1.357       .  S
C1371      H1378   1.082       .  S
C1371      C1372   1.407       .  A
C1371      C1376   1.401       .  A
C1372      C1373   1.413   1_455  A
C1373      C1374   1.398       .  A
C1373      F1380   1.357       .  S
C1374      H1379   1.083       .  S
C1374      C1375   1.400   1_655  A
C1375      C1376   1.404       .  A
C1376      F1377   1.356       .  S
C1381      H1388   1.082       .  S
C1381      C1382   1.408   1_545  A
C1381      C1386   1.399       .  A
C1382      C1383   1.415       .  A
C1383      C1384   1.400       .  A
C1383      F1390   1.355       .  S
C1384      H1389   1.083       .  S
C1384      C1385   1.399       .  A
C1385      C1386   1.403   1_565  A
C1386      F1387   1.357       .  S
C1391      H1398   1.079       .  S
C1391      C1392   1.410       .  A
C1391      C1396   1.398       .  A
C1392      C1393   1.410   1_655  A
C1393      C1394   1.401       .  A
C1393      F1400   1.357       .  S
C1394      H1399   1.082       .  S
C1394      C1395   1.404   1_455  A
C1395      C1396   1.400       .  A
C1396      F1397   1.358       .  S
C1401      H1408   1.083       .  S
C1401      C1402   1.398   1_655  A
C1401      C1406   1.396       .  A
C1402      C1403   1.404       .  A
C1403      C1404   1.401       .  A
C1403      F1410   1.355       .  S
C1404      H1409   1.083       .  S
C1404      C1405   1.408   1_455  A
C1405      C1406   1.415       .  A
C1406      F1407   1.354       .  S
C1411      H1418   1.083       .  S
C1411      C1412   1.401       .  A
C1411      C1416   1.400       .  A
C1412      C1413   1.403       .  A
C1413      C1414   1.400       .  A
C1413      F1420   1.357       .  S
C1414      H1419   1.081       .  S
C1414      C1415   1.409       .  A
C1415      C1416   1.411       .  A
C1416      F1417   1.357       .  S
C1421      H1428   1.081       .  S
C1421      C1422   1.410       .  A
C1421      C1426   1.401       .  A
C1422      C1423   1.411       .  A
C1423      C1424   1.399       .  A
C1423      F1430   1.357       .  S
C1424      H1429   1.082       .  S
C1424      C1425   1.401       .  A
C1425      C1426   1.402       .  A
C1426      F1427   1.357       .  S
C1431      H1438   1.082       .  S
C1431      C1432   1.400   1_655  A
C1431      C1436   1.405       .  A
C1432      C1433   1.406       .  A
C1433      C1434   1.395       .  A
C1433      F1440   1.358       .  S
C1434      H1439   1.080       .  S
C1434      C1435   1.409       .  A
C1435      C1436   1.416   1_455  A
C1436      F1437   1.349       .  S
C1441      H1448   1.079       .  S
C1441      C1442   1.409   1_545  A
C1441      C1446   1.397       .  A
C1442      C1443   1.411       .  A
C1443      C1444   1.402       .  A
C1443      F1450   1.357       .  S
C1444      H1449   1.082       .  S
C1444      C1445   1.402       .  A
C1445      C1446   1.400   1_565  A
C1446      F1447   1.357       .  S
C1451      H1458   1.081       .  S
C1451      C1452   1.409       .  A
C1451      C1456   1.402       .  A
C1452      C1453   1.412       .  A
C1453      C1454   1.398       .  A
C1453      F1460   1.357       .  S
C1454      H1459   1.082       .  S
C1454      C1455   1.400       .  A
C1455      C1456   1.403       .  A
C1456      F1457   1.357       .  S
C1461      H1468   1.081       .  S
C1461      C1462   1.408       .  A
C1461      C1466   1.401       .  A
C1462      C1463   1.413       .  A
C1463      C1464   1.398       .  A
C1463      F1470   1.357       .  S
C1464      H1469   1.083       .  S
C1464      C1465   1.400       .  A
C1465      C1466   1.404       .  A
C1466      F1467   1.356       .  S
C1471      H1478   1.082       .  S
C1471      C1472   1.408   1_545  A
C1471      C1476   1.401       .  A
C1472      C1473   1.417       .  A
C1473      C1474   1.397       .  A
C1473      F1480   1.354       .  S
C1474      H1479   1.083       .  S
C1474      C1475   1.397       .  A
C1475      C1476   1.404   1_565  A
C1476      F1477   1.356       .  S
C1481      H1488   1.082       .  S
C1481      C1482   1.408       .  A
C1481      C1486   1.397       .  A
C1482      C1483   1.413       .  A
C1483      C1484   1.401       .  A
C1483      F1490   1.355       .  S
C1484      H1489   1.083       .  S
C1484      C1485   1.401       .  A
C1485      C1486   1.402       .  A
C1486      F1487   1.356       .  S
C1491      H1498   1.083       .  S
C1491      C1492   1.398   1_545  A
C1491      C1496   1.399       .  A
C1492      C1493   1.403       .  A
C1493      C1494   1.402       .  A
C1493      F1500   1.357       .  S
C1494      H1499   1.082       .  S
C1494      C1495   1.409       .  A
C1495      C1496   1.416   1_565  A
C1496      F1497   1.354       .  S
C1501      H1508   1.082       .  S
C1501      C1502   1.408   1_545  A
C1501      C1506   1.395       .  A
C1502      C1503   1.411       .  A
C1503      C1504   1.403       .  A
C1503      F1510   1.356       .  S
C1504      H1509   1.083       .  S
C1504      C1505   1.403       .  A
C1505      C1506   1.401   1_565  A
C1506      F1507   1.357       .  S
C1511      H1518   1.083       .  S
C1511      C1512   1.408       .  A
C1511      C1516   1.397       .  A
C1512      C1513   1.410       .  A
C1513      C1514   1.403       .  A
C1513      F1520   1.356       .  S
C1514      H1519   1.082       .  S
C1514      C1515   1.404       .  A
C1515      C1516   1.402       .  A
C1516      F1517   1.357       .  S
C1521      H1528   1.081       .  S
C1521      C1522   1.409       .  A
C1521      C1526   1.400       .  A
C1522      C1523   1.412       .  A
C1523      C1524   1.399       .  A
C1523      F1530   1.357       .  S
C1524      H1529   1.083       .  S
C1524      C1525   1.400       .  A
C1525      C1526   1.402       .  A
C1526      F1527   1.357       .  S
C1531      H1538   1.083       .  S
C1531      C1532   1.408       .  A
C1531      C1536   1.397       .  A
C1532      C1533   1.410   1_455  A
C1533      C1534   1.403       .  A
C1533      F1540   1.356       .  S
C1534      H1539   1.082       .  S
C1534      C1535   1.403   1_655  A
C1535      C1536   1.402       .  A
C1536      F1537   1.357       .  S
C1541      H1548   1.080       .  S
C1541      C1542   1.410       .  A
C1541      C1546   1.399       .  A
C1542      C1543   1.411   1_455  A
C1543      C1544   1.401       .  A
C1543      F1550   1.357       .  S
C1544      H1549   1.082       .  S
C1544      C1545   1.402   1_655  A
C1545      C1546   1.401       .  A
C1546      F1547   1.357       .  S
C1551      H1558   1.082       .  S
C1551      C1552   1.408       .  A
C1551      C1556   1.403       .  A
C1552      C1553   1.413       .  A
C1553      C1554   1.397       .  A
C1553      F1560   1.357       .  S
C1554      H1559   1.083       .  S
C1554      C1555   1.400       .  A
C1555      C1556   1.405       .  A
C1556      F1557   1.356       .  S
C1561      H1568   1.082       .  S
C1561      C1562   1.408       .  A
C1561      C1566   1.399       .  A
C1562      C1563   1.415   1_554  A
C1563      C1564   1.400       .  A
C1563      F1570   1.355       .  S
C1564      H1569   1.083       .  S
C1564      C1565   1.399   1_556  A
C1565      C1566   1.403       .  A
C1566      F1567   1.356       .  S
C1571      H1578   1.082       .  S
C1571      C1572   1.408       .  A
C1571      C1576   1.397       .  A
C1572      C1573   1.410   1_556  A
C1573      C1574   1.403       .  A
C1573      F1580   1.356       .  S
C1574      H1579   1.082       .  S
C1574      C1575   1.404   1_554  A
C1575      C1576   1.402       .  A
C1576      F1577   1.357       .  S
C1581      H1588   1.083       .  S
C1581      C1582   1.400   1_545  A
C1581      C1586   1.396       .  A
C1582      C1583   1.405       .  A
C1583      C1584   1.402       .  A
C1583      F1590   1.357       .  S
C1584      H1589   1.082       .  S
C1584      C1585   1.407       .  A
C1585      C1586   1.412   1_565  A
C1586      F1587   1.357       .  S
C1591      H1598   1.082       .  S
C1591      C1592   1.403   1_545  A
C1591      C1596   1.402       .  A
C1592      C1593   1.402       .  A
C1593      C1594   1.399       .  A
C1593      F1600   1.357       .  S
C1594      H1599   1.082       .  S
C1594      C1595   1.409       .  A
C1595      C1596   1.410   1_565  A
C1596      F1597   1.356       .  S
C1601      H1608   1.082       .  S
C1601      C1602   1.407       .  A
C1601      C1606   1.404       .  A
C1602      C1603   1.413   1_556  A
C1603      C1604   1.395       .  A
C1603      F1610   1.357       .  S
C1604      H1609   1.083       .  S
C1604      C1605   1.399   1_554  A
C1605      C1606   1.406       .  A
C1606      F1607   1.357       .  S
C1611      H1618   1.081       .  S
C1611      C1612   1.408   1_554  A
C1611      C1616   1.400       .  A
C1612      C1613   1.412       .  A
C1613      C1614   1.400       .  A
C1613      F1620   1.357       .  S
C1614      H1619   1.083       .  S
C1614      C1615   1.400       .  A
C1615      C1616   1.403   1_556  A
C1616      F1617   1.357       .  S
C1621      H1628   1.078       .  S
C1621      C1622   1.409   1_545  A
C1621      C1626   1.396       .  A
C1622      C1623   1.411       .  A
C1623      C1624   1.404       .  A
C1623      F1630   1.357       .  S
C1624      H1629   1.082       .  S
C1624      C1625   1.403       .  A
C1625      C1626   1.401   1_565  A
C1626      F1627   1.357       .  S
C1631      H1638   1.082       .  S
C1631      C1632   1.407       .  A
C1631      C1636   1.401       .  A
C1632      C1633   1.413   1_565  A
C1633      C1634   1.397       .  A
C1633      F1640   1.357       .  S
C1634      H1639   1.083       .  S
C1634      C1635   1.399   1_545  A
C1635      C1636   1.404       .  A
C1636      F1637   1.356       .  S
C1641      H1648   1.083       .  S
C1641      C1642   1.400       .  A
C1641      C1646   1.407       .  A
C1642      C1643   1.402       .  A
C1643      C1644   1.391       .  A
C1643      F1650   1.359       .  S
C1644      H1649   1.078       .  S
C1644      C1645   1.411       .  A
C1645      C1646   1.419       .  A
C1646      F1647   1.350       .  S
C1651      H1658   1.081       .  S
C1651      C1652   1.409       .  A
C1651      C1656   1.401       .  A
C1652      C1653   1.412       .  A
C1653      C1654   1.398       .  A
C1653      F1660   1.357       .  S
C1654      H1659   1.083       .  S
C1654      C1655   1.400       .  A
C1655      C1656   1.403       .  A
C1656      F1657   1.357       .  S
C1661      H1668   1.082       .  S
C1661      C1662   1.409       .  A
C1661      C1666   1.400       .  A
C1662      C1663   1.412   1_565  A
C1663      C1664   1.400       .  A
C1663      F1670   1.356       .  S
C1664      H1669   1.081       .  S
C1664      C1665   1.401   1_545  A
C1665      C1666   1.403       .  A
C1666      F1667   1.357       .  S
C1671      H1678   1.082       .  S
C1671      C1672   1.409   1_545  A
C1671      C1676   1.398       .  A
C1672      C1673   1.411       .  A
C1673      C1674   1.402       .  A
C1673      F1680   1.356       .  S
C1674      H1679   1.082       .  S
C1674      C1675   1.402       .  A
C1675      C1676   1.402   1_565  A
C1676      F1677   1.357       .  S
C1681      H1688   1.081       .  S
C1681      C1682   1.409       .  A
C1681      C1686   1.402       .  A
C1682      C1683   1.412   1_554  A
C1683      C1684   1.399       .  A
C1683      F1690   1.357       .  S
C1684      H1689   1.083       .  S
C1684      C1685   1.401   1_556  A
C1685      C1686   1.403       .  A
C1686      F1687   1.356       .  S
C1691      H1698   1.081       .  S
C1691      C1692   1.409       .  A
C1691      C1696   1.400       .  A
C1692      C1693   1.413   1_556  A
C1693      C1694   1.400       .  A
C1693      F1700   1.357       .  S
C1694      H1699   1.083       .  S
C1694      C1695   1.400   1_554  A
C1695      C1696   1.403       .  A
C1696      F1697   1.357       .  S
C1701      H1708   1.080       .  S
C1701      C1702   1.409       .  A
C1701      C1706   1.399       .  A
C1702      C1703   1.409       .  A
C1703      C1704   1.402       .  A
C1703      F1710   1.357       .  S
C1704      H1709   1.080       .  S
C1704      C1705   1.403       .  A
C1705      C1706   1.402       .  A
C1706      F1707   1.357       .  S
C1711      H1718   1.079       .  S
C1711      C1712   1.410       .  A
C1711      C1716   1.398       .  A
C1712      C1713   1.411       .  A
C1713      C1714   1.401       .  A
C1713      F1720   1.357       .  S
C1714      H1719   1.083       .  S
C1714      C1715   1.404       .  A
C1715      C1716   1.400       .  A
C1716      F1717   1.357       .  S
C1721      H1728   1.082       .  S
C1721      C1722   1.408   1_545  A
C1721      C1726   1.403       .  A
C1722      C1723   1.413       .  A
C1723      C1724   1.397       .  A
C1723      F1730   1.357       .  S
C1724      H1729   1.083       .  S
C1724      C1725   1.399       .  A
C1725      C1726   1.404   1_565  A
C1726      F1727   1.357       .  S
C1731      H1738   1.080       .  S
C1731      C1732   1.409       .  A
C1731      C1736   1.398       .  A
C1732      C1733   1.411   1_565  A
C1733      C1734   1.401       .  A
C1733      F1740   1.357       .  S
C1734      H1739   1.082       .  S
C1734      C1735   1.401   1_545  A
C1735      C1736   1.401       .  A
C1736      F1737   1.357       .  S
C1741      H1748   1.079       .  S
C1741      C1742   1.410       .  A
C1741      C1746   1.398       .  A
C1742      C1743   1.409       .  A
C1743      C1744   1.402       .  A
C1743      F1750   1.357       .  S
C1744      H1749   1.081       .  S
C1744      C1745   1.403       .  A
C1745      C1746   1.401       .  A
C1746      F1747   1.357       .  S
C1751      H1758   1.081       .  S
C1751      C1752   1.409       .  A
C1751      C1756   1.400       .  A
C1752      C1753   1.411       .  A
C1753      C1754   1.399       .  A
C1753      F1760   1.357       .  S
C1754      H1759   1.083       .  S
C1754      C1755   1.400       .  A
C1755      C1756   1.402       .  A
C1756      F1757   1.357       .  S
C1761      H1768   1.082       .  S
C1761      C1762   1.408       .  A
C1761      C1766   1.396       .  A
C1762      C1763   1.411   1_556  A
C1763      C1764   1.403       .  A
C1763      F1770   1.356       .  S
C1764      H1769   1.083       .  S
C1764      C1765   1.403   1_554  A
C1765      C1766   1.402       .  A
C1766      F1767   1.357       .  S
C1771      H1778   1.082       .  S
C1771      C1772   1.408   1_554  A
C1771      C1776   1.397       .  A
C1772      C1773   1.409       .  A
C1773      C1774   1.403       .  A
C1773      F1780   1.356       .  S
C1774      H1779   1.082       .  S
C1774      C1775   1.404       .  A
C1775      C1776   1.402   1_556  A
C1776      F1777   1.357       .  S
C1781      H1788   1.083       .  S
C1781      C1782   1.400       .  A
C1781      C1786   1.401       .  A
C1782      C1783   1.402       .  A
C1783      C1784   1.399       .  A
C1783      F1790   1.356       .  S
C1784      H1789   1.082       .  S
C1784      C1785   1.408       .  A
C1785      C1786   1.414       .  A
C1786      F1787   1.355       .  S
C1791      H1798   1.082       .  S
C1791      C1792   1.401       .  A
C1791      C1796   1.400       .  A
C1792      C1793   1.402       .  A
C1793      C1794   1.400       .  A
C1793      F1800   1.357       .  S
C1794      H1799   1.080       .  S
C1794      C1795   1.410       .  A
C1795      C1796   1.411       .  A
C1796      F1797   1.357       .  S
C1801      H1808   1.081       .  S
C1801      C1802   1.409       .  A
C1801      C1806   1.401       .  A
C1802      C1803   1.412   1_556  A
C1803      C1804   1.399       .  A
C1803      F1810   1.357       .  S
C1804      H1809   1.083       .  S
C1804      C1805   1.401   1_554  A
C1805      C1806   1.403       .  A
C1806      F1807   1.357       .  S
C1811      H1818   1.082       .  S
C1811      C1812   1.407   1_554  A
C1811      C1816   1.405       .  A
C1812      C1813   1.413       .  A
C1813      C1814   1.394       .  A
C1813      F1820   1.357       .  S
C1814      H1819   1.083       .  S
C1814      C1815   1.399       .  A
C1815      C1816   1.406   1_556  A
C1816      F1817   1.357       .  S
C1821      H1828   1.080       .  S
C1821      C1822   1.409       .  A
C1821      C1826   1.399       .  A
C1822      C1823   1.411   1_455  A
C1823      C1824   1.401       .  A
C1823      F1830   1.357       .  S
C1824      H1829   1.082       .  S
C1824      C1825   1.401   1_655  A
C1825      C1826   1.402       .  A
C1826      F1827   1.357       .  S
C1831      H1838   1.080       .  S
C1831      C1832   1.410   1_655  A
C1831      C1836   1.401       .  A
C1832      C1833   1.411       .  A
C1833      C1834   1.399       .  A
C1833      F1840   1.357       .  S
C1834      H1839   1.082       .  S
C1834      C1835   1.401       .  A
C1835      C1836   1.402   1_455  A
C1836      F1837   1.357       .  S
C1841      H1848   1.082       .  S
C1841      C1842   1.404   1_554  A
C1841      C1846   1.402       .  A
C1842      C1843   1.403       .  A
C1843      C1844   1.398       .  A
C1843      F1850   1.357       .  S
C1844      H1849   1.083       .  S
C1844      C1845   1.408       .  A
C1845      C1846   1.410   1_556  A
C1846      F1847   1.356       .  S
C1851      H1858   1.082       .  S
C1851      C1852   1.400       .  A
C1851      C1856   1.400       .  A
C1852      C1853   1.402   1_455  A
C1853      C1854   1.399       .  A
C1853      F1860   1.357       .  S
C1854      H1859   1.081       .  S
C1854      C1855   1.408   1_655  A
C1855      C1856   1.412       .  A
C1856      F1857   1.357       .  S
C1861      H1868   1.080       .  S
C1861      C1862   1.410       .  A
C1861      C1866   1.399       .  A
C1862      C1863   1.411   1_556  A
C1863      C1864   1.401       .  A
C1863      F1870   1.357       .  S
C1864      H1869   1.082       .  S
C1864      C1865   1.402   1_554  A
C1865      C1866   1.401       .  A
C1866      F1867   1.357       .  S
C1871      H1878   1.083       .  S
C1871      C1872   1.409   1_655  A
C1871      C1876   1.400       .  A
C1872      C1873   1.412       .  A
C1873      C1874   1.400       .  A
C1873      F1880   1.355       .  S
C1874      H1879   1.083       .  S
C1874      C1875   1.402   1_455  A
C1875      C1876   1.404       .  A
C1876      F1877   1.355       .  S
C1881      H1888   1.082       .  S
C1881      C1882   1.410       .  A
C1881      C1886   1.402       .  A
C1882      C1883   1.413       .  A
C1883      C1884   1.397       .  A
C1883      F1890   1.354       .  S
C1884      H1889   1.082       .  S
C1884      C1885   1.399       .  A
C1885      C1886   1.402       .  A
C1886      F1887   1.357       .  S
C1891      H1898   1.080       .  S
C1891      C1892   1.405       .  A
C1891      C1896   1.403       .  A
C1892      C1893   1.402       .  A
C1893      C1894   1.396       .  A
C1893      F1900   1.356       .  S
C1894      H1899   1.080       .  S
C1894      C1895   1.408       .  A
C1895      C1896   1.408       .  A
C1896      F1897   1.357       .  S
C1901      H1908   1.080       .  S
C1901      C1902   1.410       .  A
C1901      C1906   1.400       .  A
C1902      C1903   1.411   1_455  A
C1903      C1904   1.400       .  A
C1903      F1910   1.357       .  S
C1904      H1909   1.082       .  S
C1904      C1905   1.401   1_655  A
C1905      C1906   1.402       .  A
C1906      F1907   1.357       .  S
C1911      H1918   1.083       .  S
C1911      C1912   1.403   1_455  A
C1911      C1916   1.405       .  A
C1912      C1913   1.404       .  A
C1913      C1914   1.393       .  A
C1913      F1920   1.356       .  S
C1914      H1919   1.078       .  S
C1914      C1915   1.406   1_655  A
C1915      C1916   1.413       .  A
C1916      F1917   1.357       .  S
C1921      H1928   1.081       .  S
C1921      C1922   1.408       .  A
C1921      C1926   1.400       .  A
C1922      C1923   1.413       .  A
C1923      C1924   1.399       .  A
C1923      F1930   1.357       .  S
C1924      H1929   1.082       .  S
C1924      C1925   1.400       .  A
C1925      C1926   1.403       .  A
C1926      F1927   1.357       .  S
C1931      H1938   1.083       .  S
C1931      C1932   1.407       .  A
C1931      C1936   1.401       .  A
C1932      C1933   1.416       .  A
C1933      C1934   1.396       .  A
C1933      F1940   1.354       .  S
C1934      H1939   1.083       .  S
C1934      C1935   1.397       .  A
C1935      C1936   1.405       .  A
C1936      F1937   1.356       .  S
C1941      H1948   1.082       .  S
C1941      C1942   1.408       .  A
C1941      C1946   1.402       .  A
C1942      C1943   1.413   1_556  A
C1943      C1944   1.397       .  A
C1943      F1950   1.357       .  S
C1944      H1949   1.083       .  S
C1944      C1945   1.399   1_554  A
C1945      C1946   1.404       .  A
C1946      F1947   1.357       .  S
C1951      H1958   1.080       .  S
C1951      C1952   1.410       .  A
C1951      C1956   1.399       .  A
C1952      C1953   1.411   1_554  A
C1953      C1954   1.401       .  A
C1953      F1960   1.357       .  S
C1954      H1959   1.082       .  S
C1954      C1955   1.402       .  A
C1955      C1956   1.401   1_556  A
C1956      F1957   1.357       .  S
C1961      H1968   1.080       .  S
C1961      C1962   1.408       .  A
C1961      C1966   1.398       .  A
C1962      C1963   1.413       .  A
C1963      C1964   1.402       .  A
C1963      F1970   1.357       .  S
C1964      H1969   1.083       .  S
C1964      C1965   1.401       .  A
C1965      C1966   1.403       .  A
C1966      F1967   1.357       .  S
C1971      H1978   1.082       .  S
C1971      C1972   1.402   1_655  A
C1971      C1976   1.403       .  A
C1972      C1973   1.402       .  A
C1973      C1974   1.397       .  A
C1973      F1980   1.357       .  S
C1974      H1979   1.080       .  S
C1974      C1975   1.408       .  A
C1975      C1976   1.412   1_455  A
C1976      F1977   1.357       .  S
C1981      H1988   1.083       .  S
C1981      C1982   1.400       .  A
C1981      C1986   1.400       .  A
C1982      C1983   1.402   1_455  A
C1983      C1984   1.399       .  A
C1983      F1990   1.357       .  S
C1984      H1989   1.081       .  S
C1984      C1985   1.408   1_655  A
C1985      C1986   1.413       .  A
C1986      F1987   1.357       .  S
C1991      H1998   1.081       .  S
C1991      C1992   1.408       .  A
C1991      C1996   1.402       .  A
C1992      C1993   1.413       .  A
C1993      C1994   1.398       .  A
C1993      F2000   1.357       .  S
C1994      H1999   1.083       .  S
C1994      C1995   1.400       .  A
C1995      C1996   1.404       .  A
C1996      F1997   1.357       .  S
C2001      H2008   1.082       .  S
C2001      C2002   1.409   1_554  A
C2001      C2006   1.396       .  A
C2002      C2003   1.410       .  A
C2003      C2004   1.403       .  A
C2003      F2010   1.356       .  S
C2004      H2009   1.083       .  S
C2004      C2005   1.404   1_556  A
C2005      C2006   1.401       .  A
C2006      F2007   1.358       .  S
C2011      H2018   1.083       .  S
C2011      C2012   1.400   1_554  A
C2011      C2016   1.401       .  A
C2012      C2013   1.402       .  A
C2013      C2014   1.398       .  A
C2013      F2020   1.357       .  S
C2014      H2019   1.082       .  S
C2014      C2015   1.408   1_556  A
C2015      C2016   1.414       .  A
C2016      F2017   1.355       .  S
C2021      H2028   1.082       .  S
C2021      C2022   1.409       .  A
C2021      C2026   1.401       .  A
C2022      C2023   1.414       .  A
C2023      C2024   1.398       .  A
C2023      F2030   1.355       .  S
C2024      H2029   1.083       .  S
C2024      C2025   1.399       .  A
C2025      C2026   1.402       .  A
C2026      F2027   1.357       .  S
C2031      H2038   1.083       .  S
C2031      C2032   1.400       .  A
C2031      C2036   1.398       .  A
C2032      C2033   1.403       .  A
C2033      C2034   1.402       .  A
C2033      F2040   1.357       .  S
C2034      H2039   1.081       .  S
C2034      C2035   1.409       .  A
C2035      C2036   1.412       .  A
C2036      F2037   1.357       .  S
C2041      H2048   1.082       .  S
C2041      C2042   1.409       .  A
C2041      C2046   1.395       .  A
C2042      C2043   1.407       .  A
C2043      C2044   1.403       .  A
C2043      F2050   1.357       .  S
C2044      H2049   1.082       .  S
C2044      C2045   1.405       .  A
C2045      C2046   1.402       .  A
C2046      F2047   1.357       .  S
C2051      H2058   1.082       .  S
C2051      C2052   1.401       .  A
C2051      C2056   1.400       .  A
C2052      C2053   1.401       .  A
C2053      C2054   1.400       .  A
C2053      F2060   1.357       .  S
C2054      H2059   1.082       .  S
C2054      C2055   1.410       .  A
C2055      C2056   1.412       .  A
C2056      F2057   1.355       .  S
C2061      H2068   1.082       .  S
C2061      C2062   1.409       .  A
C2061      C2066   1.399       .  A
C2062      C2063   1.414       .  A
C2063      C2064   1.400       .  A
C2063      F2070   1.355       .  S
C2064      H2069   1.083       .  S
C2064      C2065   1.400       .  A
C2065      C2066   1.402       .  A
C2066      F2067   1.357       .  S
C2071      H2078   1.082       .  S
C2071      C2072   1.404       .  A
C2071      C2076   1.403       .  A
C2072      C2073   1.402       .  A
C2073      C2074   1.396       .  A
C2073      F2080   1.357       .  S
C2074      H2079   1.083       .  S
C2074      C2075   1.408       .  A
C2075      C2076   1.409       .  A
C2076      F2077   1.356       .  S
C2081      H2088   1.082       .  S
C2081      C2082   1.408       .  A
C2081      C2086   1.397       .  A
C2082      C2083   1.410       .  A
C2083      C2084   1.402       .  A
C2083      F2090   1.356       .  S
C2084      H2089   1.083       .  S
C2084      C2085   1.403       .  A
C2085      C2086   1.402       .  A
C2086      F2087   1.357       .  S
C2091      H2098   1.082       .  S
C2091      C2092   1.409       .  A
C2091      C2096   1.398       .  A
C2092      C2093   1.412       .  A
C2093      C2094   1.402       .  A
C2093      F2100   1.356       .  S
C2094      H2099   1.083       .  S
C2094      C2095   1.402       .  A
C2095      C2096   1.401       .  A
C2096      F2097   1.357       .  S
C2101      H2108   1.081       .  S
C2101      C2102   1.403       .  A
C2101      C2106   1.401       .  A
C2102      C2103   1.401       .  A
C2103      C2104   1.398       .  A
C2103      F2110   1.357       .  S
C2104      H2109   1.079       .  S
C2104      C2105   1.409       .  A
C2105      C2106   1.410       .  A
C2106      F2107   1.357       .  S
C2111      H2118   1.083       .  S
C2111      C2112   1.401       .  A
C2111      C2116   1.400       .  A
C2112      C2113   1.404       .  A
C2113      C2114   1.400       .  A
C2113      F2120   1.356       .  S
C2114      H2119   1.081       .  S
C2114      C2115   1.408       .  A
C2115      C2116   1.412       .  A
C2116      F2117   1.357       .  S
C2121      H2128   1.082       .  S
C2121      C2122   1.408       .  A
C2121      C2126   1.397       .  A
C2122      C2123   1.413       .  A
C2123      C2124   1.403       .  A
C2123      F2130   1.355       .  S
C2124      H2129   1.083       .  S
C2124      C2125   1.402       .  A
C2125      C2126   1.402       .  A
C2126      F2127   1.357       .  S
C2131      H2138   1.082       .  S
C2131      C2132   1.409       .  A
C2131      C2136   1.402       .  A
C2132      C2133   1.412       .  A
C2133      C2134   1.398       .  A
C2133      F2140   1.357       .  S
C2134      H2139   1.083       .  S
C2134      C2135   1.400       .  A
C2135      C2136   1.404       .  A
C2136      F2137   1.357       .  S
C2141      H2148   1.082       .  S
C2141      C2142   1.409       .  A
C2141      C2146   1.397       .  A
C2142      C2143   1.410       .  A
C2143      C2144   1.402       .  A
C2143      F2150   1.356       .  S
C2144      H2149   1.083       .  S
C2144      C2145   1.403       .  A
C2145      C2146   1.401       .  A
C2146      F2147   1.357       .  S
C2151      H2158   1.083       .  S
C2151      C2152   1.407       .  A
C2151      C2156   1.402       .  A
C2152      C2153   1.415       .  A
C2153      C2154   1.395       .  A
C2153      F2160   1.354       .  S
C2154      H2159   1.083       .  S
C2154      C2155   1.397       .  A
C2155      C2156   1.405       .  A
C2156      F2157   1.356       .  S
C2161      H2168   1.083       .  S
C2161      C2162   1.401       .  A
C2161      C2166   1.399       .  A
C2162      C2163   1.403       .  A
C2163      C2164   1.401       .  A
C2163      F2170   1.357       .  S
C2164      H2169   1.081       .  S
C2164      C2165   1.410       .  A
C2165      C2166   1.411       .  A
C2166      F2167   1.357       .  S
C2171      H2178   1.082       .  S
C2171      C2172   1.408       .  A
C2171      C2176   1.397       .  A
C2172      C2173   1.411       .  A
C2173      C2174   1.403       .  A
C2173      F2180   1.356       .  S
C2174      H2179   1.083       .  S
C2174      C2175   1.403       .  A
C2175      C2176   1.401       .  A
C2176      F2177   1.357       .  S
C2181      H2188   1.082       .  S
C2181      C2182   1.408       .  A
C2181      C2186   1.397       .  A
C2182      C2183   1.413       .  A
C2183      C2184   1.402       .  A
C2183      F2190   1.355       .  S
C2184      H2189   1.083       .  S
C2184      C2185   1.401       .  A
C2185      C2186   1.402       .  A
C2186      F2187   1.357       .  S
C2191      H2198   1.082       .  S
C2191      C2192   1.408       .  A
C2191      C2196   1.396       .  A
C2192      C2193   1.409       .  A
C2193      C2194   1.403       .  A
C2193      F2200   1.357       .  S
C2194      H2199   1.083       .  S
C2194      C2195   1.404       .  A
C2195      C2196   1.401       .  A
C2196      F2197   1.357       .  S
C2201      H2208   1.083       .  S
C2201      C2202   1.408       .  A
C2201      C2206   1.403       .  A
C2202      C2203   1.416       .  A
C2203      C2204   1.395       .  A
C2203      F2210   1.354       .  S
C2204      H2209   1.083       .  S
C2204      C2205   1.396       .  A
C2205      C2206   1.404       .  A
C2206      F2207   1.356       .  S
C2211      H2218   1.082       .  S
C2211      C2212   1.410       .  A
C2211      C2216   1.400       .  A
C2212      C2213   1.411       .  A
C2213      C2214   1.399       .  A
C2213      F2220   1.355       .  S
C2214      H2219   1.082       .  S
C2214      C2215   1.401       .  A
C2215      C2216   1.402       .  A
C2216      F2217   1.357       .  S
C2221      H2228   1.083       .  S
C2221      C2222   1.409       .  A
C2221      C2226   1.401       .  A
C2222      C2223   1.414       .  A
C2223      C2224   1.398       .  A
C2223      F2230   1.354       .  S
C2224      H2229   1.083       .  S
C2224      C2225   1.399       .  A
C2225      C2226   1.404       .  A
C2226      F2227   1.356       .  S
C2231      H2238   1.083       .  S
C2231      C2232   1.408       .  A
C2231      C2236   1.396       .  A
C2232      C2233   1.408       .  A
C2233      C2234   1.403       .  A
C2233      F2240   1.357       .  S
C2234      H2239   1.081       .  S
C2234      C2235   1.404       .  A
C2235      C2236   1.402       .  A
C2236      F2237   1.357       .  S
C2241      H2248   1.083       .  S
C2241      C2242   1.409       .  A
C2241      C2246   1.399       .  A
C2242      C2243   1.411       .  A
C2243      C2244   1.401       .  A
C2243      F2250   1.356       .  S
C2244      H2249   1.082       .  S
C2244      C2245   1.402       .  A
C2245      C2246   1.403       .  A
C2246      F2247   1.356       .  S
C2251      H2258   1.077       .  S
C2251      C2252   1.407       .  A
C2251      C2256   1.392       .  A
C2252      C2253   1.412       .  A
C2253      C2254   1.407       .  A
C2253      F2260   1.357       .  S
C2254      H2259   1.082       .  S
C2254      C2255   1.404       .  A
C2255      C2256   1.402       .  A
C2256      F2257   1.357       .  S
C2261      H2268   1.082       .  S
C2261      C2262   1.407       .  A
C2261      C2266   1.402       .  A
C2262      C2263   1.413       .  A
C2263      C2264   1.397       .  A
C2263      F2270   1.357       .  S
C2264      H2269   1.083       .  S
C2264      C2265   1.399       .  A
C2265      C2266   1.405       .  A
C2266      F2267   1.356       .  S
C2271      H2278   1.082       .  S
C2271      C2272   1.407       .  A
C2271      C2276   1.401       .  A
C2272      C2273   1.412       .  A
C2273      C2274   1.398       .  A
C2273      F2280   1.357       .  S
C2274      H2279   1.083       .  S
C2274      C2275   1.401       .  A
C2275      C2276   1.404       .  A
C2276      F2277   1.356       .  S
