geometry optimzed in LAMMPS
_audit_creation_date              2020-11-30 
_audit_creation_method            'lammps2cif' 
_symmetry_space_group_name_H-M    'P1' 
_symmetry_Int_Tables_number       1 
_symmetry_cell_setting            triclinic 
loop_ 
_symmetry_equiv_pos_as_xyz 
  x,y,z 
_cell_length_a                    41.96699010938341 
_cell_length_b                    42.135285408100756 
_cell_length_c                    31.859950022139206 
_cell_angle_alpha                 89.53976197119054 
_cell_angle_beta                  90.01674917215453 
_cell_angle_gamma                 119.95888294402029 
loop_ 
_atom_site_label 
_atom_site_type_symbol 
_atom_site_fract_x 
_atom_site_fract_y 
_atom_site_fract_z 
_atom_site_charge 
C1          C  0.48976113  0.71762504  0.10301207     0.04060
C2          C  0.48795164  0.71675973  0.14711975    -0.12080
C3          C  0.49545131  0.74820295  0.17012353     0.01570
C4          C  0.50245314  0.77989906  0.14739905    -0.10610
C5          C  0.49873224  0.77946021  0.10360477     0.04060
C6          C  0.49373208  0.74863044  0.08150717    -0.10030
H7          H  0.48151781  0.69146581  0.16291929     0.09650
H8          H  0.51013531  0.80523203  0.16337657     0.07180
H9          H  0.49299295  0.74877914  0.04756084     0.07030
C10         C  0.50443720  0.72408554  0.28405730     0.04060
C11         C  0.50258717  0.72303371  0.24013033    -0.12080
C12         C  0.49685402  0.74855501  0.21731173     0.01570
C13         C  0.49244147  0.77464952  0.24027821    -0.10610
C14         C  0.49848112  0.77852387  0.28383849     0.04060
C15         C  0.50492226  0.75314424  0.30540528    -0.10030
H16         H  0.50498287  0.70163601  0.22457855     0.09650
H17         H  0.48452168  0.79248796  0.22462556     0.07180
H18         H  0.50877406  0.75495854  0.33909818     0.07030
C19         C  0.26021748  0.77997847  0.28299594     0.04060
C20         C  0.25829634  0.78152612  0.23903070    -0.12080
C21         C  0.22811225  0.75425454  0.21643271     0.01570
C22         C  0.19888248  0.72628677  0.23997913    -0.10610
C23         C  0.20107676  0.72391816  0.28362584     0.04060
C24         C  0.23193381  0.75038787  0.30492274    -0.10030
H25         H  0.28093484  0.80434416  0.22330943     0.09650
H26         H  0.17390687  0.70592383  0.22520624     0.07180
H27         H  0.23360647  0.74821486  0.33868089     0.07030
C28         C  0.24978932  0.78624472  0.10145725     0.03940
C29         C  0.25175861  0.78595602  0.14527438    -0.12080
C30         C  0.22666747  0.75498162  0.16903583     0.01570
C31         C  0.20064136  0.72396867  0.14656520    -0.10610
C32         C  0.19593316  0.72541703  0.10299924     0.04060
C33         C  0.22047874  0.75729689  0.08080299    -0.10030
H34         H  0.27375466  0.80997799  0.15963800     0.09650
H35         H  0.18377340  0.69808649  0.16231961     0.07180
H36         H  0.21802071  0.75907693  0.04714225     0.07030
C37         C  0.19080937  0.46415153  0.09979703     0.04060
C38         C  0.22114233  0.46628484  0.07912950    -0.12080
C39         C  0.24875868  0.46496830  0.10221875     0.01570
C40         C  0.24634121  0.46231124  0.14610058    -0.10610
C41         C  0.21591132  0.46004724  0.16785424     0.04060
C42         C  0.18761041  0.45978850  0.14349352    -0.10030
H43         H  0.22363242  0.46973349  0.04531419     0.09650
H44         H  0.26932658  0.46341267  0.16251700     0.07180
H45         H  0.16308081  0.45722791  0.15756438     0.07030
C46         C  0.19670200  0.48053442  0.27862273     0.04060
C47         C  0.19201020  0.47138254  0.23617681    -0.12080
C48         C  0.21611514  0.46262910  0.21510876     0.01570
C49         C  0.24246786  0.45941821  0.23966545    -0.10610
C50         C  0.25038015  0.47255983  0.28114257     0.04060
C51         C  0.22752802  0.48412369  0.29981621    -0.10030
H52         H  0.16932742  0.47149593  0.22052450     0.09650
H53         H  0.25776272  0.44752373  0.22654081     0.07180
H54         H  0.23285700  0.49522656  0.33115858     0.07030
C55         C  0.77603813  0.26477850  0.28216696     0.04060
C56         C  0.77594576  0.26330712  0.23824205    -0.12080
C57         C  0.74840435  0.23282424  0.21620547     0.01570
C58         C  0.72084671  0.20386057  0.24062338    -0.10610
C59         C  0.72041506  0.20569712  0.28457624     0.04060
C60         C  0.74828840  0.23594860  0.30516543    -0.10030
H61         H  0.79763392  0.28683035  0.22240704     0.09650
H62         H  0.69893278  0.17962749  0.22654739     0.07180
H63         H  0.74801239  0.23733922  0.33912154     0.07030
C64         C  0.77453726  0.26142142  0.10066024     0.04060
C65         C  0.77641947  0.26014592  0.14449445    -0.12080
C66         C  0.74774578  0.23200568  0.16858103     0.01570
C67         C  0.71791614  0.20395462  0.14616793    -0.10610
C68         C  0.71682279  0.20430168  0.10215374     0.04060
C69         C  0.74495577  0.23320920  0.07949375    -0.10030
H70         H  0.80062088  0.28204514  0.15866274     0.09650
H71         H  0.69468784  0.18168364  0.16182773     0.07180
H72         H  0.74345690  0.23410593  0.04557341     0.07030
C73         C  0.71450202  0.51515420  0.10233797     0.04060
C74         C  0.73860989  0.50650167  0.08124696    -0.12080
C75         C  0.76649032  0.50446829  0.10322226     0.01570
C76         C  0.76708683  0.50631024  0.14708381    -0.10610
C77         C  0.74459410  0.51663230  0.16898483     0.04060
C78         C  0.72027231  0.52353418  0.14526413    -0.10030
H79         H  0.73597970  0.50155106  0.04782378     0.09650
H80         H  0.78610997  0.50032656  0.16318314     0.07180
H81         H  0.70459262  0.53439060  0.15995543     0.07030
C82         C  0.71706313  0.52045426  0.28238116     0.04060
C83         C  0.71635583  0.51816092  0.23861069    -0.12080
C84         C  0.74587069  0.51949892  0.21605380     0.01570
C85         C  0.77550406  0.52160320  0.23929350    -0.10610
C86         C  0.77587397  0.52253328  0.28337572     0.04060
C87         C  0.74707657  0.52335728  0.30469610    -0.10030
H88         H  0.69182923  0.51416052  0.22291878     0.09650
H89         H  0.79849201  0.52193527  0.22381229     0.07180
H90         H  0.74713958  0.52447840  0.33866999     0.07030
C91         C  0.46081257  0.20176064  0.28250122     0.04060
C92         C  0.46175155  0.23078521  0.30453019    -0.12080
C93         C  0.46577336  0.26175363  0.28296612     0.01570
C94         C  0.46854935  0.26297280  0.23885835    -0.10610
C95         C  0.46386609  0.23249027  0.21554163     0.04060
C96         C  0.45986047  0.20182644  0.23849021    -0.10030
H97         H  0.46052359  0.22967026  0.33850824     0.09650
H98         H  0.47444998  0.28821373  0.22343218     0.07180
H99         H  0.45653959  0.17768341  0.22306016     0.07030
C100        C  0.46481118  0.20543746  0.10048074     0.04060
C101        C  0.46717332  0.20642294  0.14451439    -0.12080
C102        C  0.46343774  0.23280362  0.16798392     0.01570
C103        C  0.45946911  0.25959839  0.14513798    -0.10610
C104        C  0.45998489  0.26035883  0.10107741     0.04060
C105        C  0.46115643  0.23249636  0.07906180    -0.10030
H106        H  0.47224087  0.18637300  0.15958209     0.09650
H107        H  0.45651058  0.28063485  0.16067003     0.07180
H108        H  0.46045228  0.23260500  0.04504949     0.07030
O109        O  0.51430722  0.58811907  0.02005652    -0.74360
O110        O  0.46028359  0.57560068  0.49044704    -0.53260
C111        C  0.48815259  0.59523377  0.01379796     0.79370
O112        O  0.57788135  0.53038306  0.35842902    -0.58960
O113        O  0.57255507  0.48057868  0.39368566    -0.51990
C114        C  0.58845173  0.50714563  0.36699963     0.71390
O115        O  0.51329518  0.58879929  0.36409675    -0.73520
O116        O  0.46231860  0.57920959  0.40049551    -0.54080
C117        C  0.48897189  0.59738804  0.37450993     0.77390
O118        O  0.57682503  0.52702657  0.02480643    -0.58660
O119        O  0.57293043  0.47946454  0.48661087    -0.51780
C120        C  0.58790192  0.50466993  0.01454396     0.73980
Zr121      Zr  0.52810810  0.53931894  0.50456537     2.54710
O122        O  0.58577802  0.59697361  0.50984411    -0.79230
O123        O  0.52017684  0.53194655  0.08043844    -0.92640
Zr124      Zr  0.52804675  0.54101297  0.37974145     2.64680
O125        O  0.58248149  0.60148025  0.37818969    -0.97600
O126        O  0.52332188  0.53770292  0.30352848    -0.79660
O127        O  0.50977285  0.55710552  0.44271603    -0.83020
O128        O  0.54792953  0.52454661  0.44158072    -2.17730
O129        O  0.45183301  0.39584707  0.02034160    -0.66410
O130        O  0.50336883  0.40600400  0.48467766    -0.50970
C131        C  0.47657801  0.38762081  0.01046468     0.72360
O132        O  0.38723508  0.45881073  0.35970805    -0.59310
O133        O  0.39191944  0.50652381  0.39811398    -0.51290
C134        C  0.37665339  0.48163008  0.37003410     0.74170
O135        O  0.44957183  0.39722081  0.36236615    -0.70710
O136        O  0.50254142  0.40793213  0.39352669    -0.49390
C137        C  0.47483052  0.38900579  0.36940529     0.75550
O138        O  0.38727028  0.45454881  0.02623737    -0.66040
O139        O  0.39250387  0.50445302  0.49115077    -0.53240
C140        C  0.37691810  0.47795094  0.01791604     0.73930
Zr141      Zr  0.43637689  0.44335768  0.50431321     2.77540
O142        O  0.37821172  0.38582348  0.50605466    -0.96790
O143        O  0.44192199  0.44556066  0.08043135    -0.77610
Zr144      Zr  0.43595188  0.44572001  0.37928527     2.70070
O145        O  0.37836379  0.38809545  0.37309293    -0.78860
O146        O  0.44436769  0.45414434  0.30358557    -0.97940
Zr147      Zr  0.44442287  0.52503616  0.44364885     2.21500
Zr148      Zr  0.51999560  0.45940084  0.44049370     2.11130
O149        O  0.45433722  0.42755994  0.44108511    -2.46630
O150        O  0.41624229  0.46005008  0.44260668    -0.78650
O151        O  0.50159525  0.47459817  0.00451380    -0.70840
O152        O  0.46289421  0.51027942  0.37942413    -2.31800
O153        O  0.46305420  0.50792806  0.00641829    -2.28010
O154        O  0.50120410  0.47640309  0.37768887    -0.72600
H155        H  0.57443379  0.53616524  0.44142281     0.79390
H156        H  0.45447585  0.51834289  0.35557458     0.80480
H157        H  0.44431824  0.40136189  0.44084619     0.82710
H158        H  0.45473702  0.51502012  0.03101243     0.80310
H159        H  0.50170691  0.54034279  0.29689229     0.43350
H160        H  0.46021137  0.44380641  0.29607668     0.42320
H161        H  0.36785532  0.38291632  0.40181040     0.42000
H162        H  0.37866291  0.37279889  0.48055807     0.39930
H163        H  0.46724336  0.45052116  0.08577236     0.43060
H164        H  0.50539239  0.54345156  0.08797379     0.37850
H165        H  0.58850734  0.60912819  0.48228935     0.43960
H166        H  0.59826054  0.60069423  0.40077748     0.40380
H167        H  0.38034703  0.37161538  0.02966752     0.45300
H168        H  0.54492018  0.54857188  0.09191324     0.44020
H169        H  0.59515147  0.60239312  0.35163486     0.44160
H170        H  0.41998536  0.43681175  0.29177117     0.44510
O171        O  0.04857292  0.58986836  0.36140775    -0.74360
O172        O  0.09017451  0.58351268  0.40098891    -0.53260
C173        C  0.08184921  0.59991072  0.37254642     0.79370
O174        O  0.91991929  0.52038451  0.02712138    -0.58960
O175        O  0.87814594  0.47446859  0.48678560    -0.51990
C176        C  0.88646134  0.49757073  0.01668398     0.71390
O177        O  0.04477992  0.58870522  0.02397878    -0.73520
O178        O  0.08801535  0.57976358  0.49201441    -0.54080
C179        C  0.07848230  0.59756319  0.01686684     0.77390
O180        O  0.92415658  0.52771486  0.35933193    -0.58660
O181        O  0.88083094  0.47809263  0.39467178    -0.51780
C182        C  0.89037445  0.50422918  0.36766198     0.73980
Zr183      Zr  0.98578019  0.54247344  0.38075934     2.54710
O184        O  0.98369772  0.59903498  0.38429880    -0.79230
O185        O  0.98711981  0.54263191  0.30432172    -0.92640
Zr186      Zr  0.98313136  0.53962005  0.50532633     2.64680
O187        O  0.98123156  0.59647113  0.50361596    -0.97600
O188        O  0.98253804  0.53650334  0.08163501    -0.79660
O189        O  0.02009352  0.55942325  0.44377290    -0.83020
O190        O  0.94880837  0.52382259  0.44236215    -2.17730
O191        O  0.92425107  0.40072320  0.35899646    -0.66410
O192        O  0.88056698  0.40761876  0.39389403    -0.50970
C193        C  0.89068703  0.39137315  0.36751259     0.72360
O194        O  0.04549269  0.45799505  0.02227134    -0.59310
O195        O  0.08899982  0.50899919  0.48775340    -0.51290
C196        C  0.07905274  0.48181649  0.01331156     0.74170
O197        O  0.92262698  0.39836619  0.02397435    -0.70710
O198        O  0.87984830  0.40598411  0.48782223    -0.49390
C199        C  0.88934409  0.38915852  0.01459167     0.75550
O200        O  0.04755731  0.46426257  0.35826126    -0.66040
O201        O  0.08991318  0.51363028  0.39535735    -0.53240
C202        C  0.08069636  0.48856905  0.36752743     0.73930
Zr203      Zr  0.98568341  0.44842900  0.37952414     2.77540
O204        O  0.98961464  0.39273041  0.37855263    -0.96790
O205        O  0.98516213  0.45244455  0.30328605    -0.77610
Zr206      Zr  0.98412440  0.44626601  0.50439698     2.70070
O207        O  0.98212744  0.38769366  0.50912764    -0.78860
O208        O  0.98503209  0.45215550  0.08040516    -0.97940
Zr209      Zr  0.05522250  0.52926807  0.44385964     2.21500
Zr210      Zr  0.91394445  0.45855141  0.44110720     2.11130
O211        O  0.94941068  0.42857052  0.44145513    -2.46630
O212        O  0.02044531  0.46414499  0.44244500    -0.78650
O213        O  0.94983226  0.47757177  0.37840707    -0.70840
O214        O  0.01955201  0.51095438  0.00673622    -2.31800
O215        O  0.02139808  0.51323050  0.37997653    -2.28010
O216        O  0.94773178  0.47481619  0.00490951    -0.72600
H217        H  0.93287447  0.53424139  0.44241362     0.79390
H218        H  0.03516873  0.51840717  0.03119124     0.80480
H219        H  0.93380195  0.40226066  0.44115880     0.82710
H220        H  0.03765633  0.52178485  0.35592904     0.80310
H221        H  0.00055992  0.52869625  0.08881524     0.43350
H222        H  0.96222159  0.45257946  0.08717742     0.42320
H223        H  0.98239056  0.38076318  0.47958146     0.42000
H224        H  0.97441523  0.37809705  0.40268868     0.39930
H225        H  0.96592866  0.45885590  0.29707645     0.43060
H226        H  0.00450831  0.53408472  0.29703933     0.37850
H227        H  0.99184670  0.60800427  0.41313363     0.43960
H228        H  0.95512673  0.58903619  0.49878078     0.40380
H229        H  0.97551411  0.37930407  0.35349500     0.45300
H230        H  0.00013131  0.56887070  0.29618243     0.44020
H231        H  0.98610456  0.60532960  0.03288212     0.44160
H232        H  0.98054419  0.42817224  0.09124826     0.44510
O233        O  0.52019637  0.93206992  0.36364313    -0.74360
O234        O  0.46806312  0.89009350  0.39699634    -0.53260
C235        C  0.49502905  0.89875521  0.37158000     0.79370
O236        O  0.58036740  0.05490028  0.02630646    -0.58960
O237        O  0.57318294  0.09773085  0.48978035    -0.51990
C238        C  0.58994823  0.08830062  0.01673292     0.71390
O239        O  0.51721705  0.93172435  0.02732421    -0.73520
O240        O  0.46806984  0.88945732  0.48971333    -0.54080
C241        C  0.49358688  0.89868674  0.01716936     0.77390
O242        O  0.58358492  0.05591406  0.36385328    -0.58660
O243        O  0.57614168  0.09778478  0.40025606    -0.51780
C244        C  0.59385643  0.08922038  0.37404594     0.73980
Zr245      Zr  0.53401421  0.99408140  0.38184494     2.54710
O246        O  0.58979106  0.99002416  0.38055778    -0.79230
O247        O  0.53041942  0.99852136  0.30597828    -0.92640
Zr248      Zr  0.53183952  0.99342750  0.50683112     2.64680
O249        O  0.58674561  0.98783395  0.50544258    -0.97600
O250        O  0.52989376  0.99449676  0.08314774    -0.79660
O251        O  0.51557010  0.95853103  0.44451077    -0.83020
O252        O  0.55141999  0.02890451  0.44428817    -2.17730
O253        O  0.45246199  0.05537031  0.36054900    -0.66410
O254        O  0.50365412  0.09817489  0.39496404    -0.50970
C255        C  0.47671110  0.08862996  0.36921156     0.72360
O256        O  0.38786524  0.93249701  0.02188968    -0.59310
O257        O  0.39493223  0.89010571  0.48558667    -0.51290
C258        C  0.37759000  0.89921097  0.01178789     0.74170
O259        O  0.45059600  0.05548405  0.02079449    -0.70710
O260        O  0.50150082  0.09813791  0.48666331    -0.49390
C261        C  0.47416103  0.08898886  0.01173832     0.75550
O262        O  0.39210619  0.93155869  0.35993425    -0.66040
O263        O  0.39960799  0.88904827  0.39690293    -0.53240
C264        C  0.38325860  0.89838230  0.36961421     0.73930
Zr265      Zr  0.43962716  0.99372116  0.37890205     2.77540
O266        O  0.38018328  0.99034376  0.37279498    -0.96790
O267        O  0.44736670  0.99515602  0.30305407    -0.77610
Zr268      Zr  0.43770860  0.99384494  0.50394653     2.70070
O269        O  0.38159592  0.99721384  0.50339693    -0.78860
O270        O  0.44012866  0.99249055  0.08024643    -0.97940
Zr271      Zr  0.45032908  0.92383089  0.44342607     2.21500
Zr272      Zr  0.52126779  0.06415360  0.44286781     2.11130
O273        O  0.45579240  0.02884620  0.44113955    -2.46630
O274        O  0.41994793  0.95860772  0.44178833    -0.78650
O275        O  0.50487394  0.02993418  0.37952214    -0.70840
O276        O  0.46664116  0.95787826  0.00682429    -2.31800
O277        O  0.46900677  0.95827837  0.37961906    -2.28010
O278        O  0.50279778  0.02950816  0.00657198    -0.72600
H279        H  0.57783284  0.04435384  0.44486743     0.79390
H280        H  0.45795192  0.94178166  0.03104918     0.80480
H281        H  0.44500906  0.04442085  0.44051420     0.82710
H282        H  0.46149666  0.94250779  0.35544270     0.80310
H283        H  0.50385360  0.97739129  0.09055233     0.43350
H284        H  0.45959654  0.01744553  0.08801351     0.42320
H285        H  0.37404706  0.99388348  0.47358889     0.42000
H286        H  0.37962554  0.00535163  0.39618716     0.39930
H287        H  0.47094046  0.01791524  0.29741373     0.43060
H288        H  0.51208002  0.97351430  0.29697779     0.37850
H289        H  0.58877420  0.97681311  0.40681408     0.43960
H290        H  0.60204499  0.00465463  0.48266020     0.40380
H291        H  0.38206904  0.00460180  0.34713294     0.45300
H292        H  0.55430429  0.00244591  0.29539245     0.44020
H293        H  0.59981802  0.99944670  0.03171376     0.44160
H294        H  0.41694054  0.99102105  0.08963192     0.44510
C295        C  0.46378673  0.29270879  0.07762349    -0.04400
C296        C  0.49738544  0.32617179  0.07936324    -0.01520
C297        C  0.50254463  0.35644737  0.05500403     0.03470
C298        C  0.47342401  0.35427590  0.03069127    -0.04400
C299        C  0.44029821  0.32036934  0.02766042    -0.01510
C300        C  0.43562058  0.28959031  0.05078255     0.03470
C301        C  0.52702500  0.32926227  0.10572721     0.38120
C302        C  0.41190021  0.31657993  0.49878515     0.38110
C303        C  0.40183922  0.25474054  0.04701362     0.36530
C304        C  0.53832701  0.38925376  0.05392055     0.36530
N305        N  0.37497612  0.22688161  0.04381385    -0.38290
N306        N  0.56744832  0.41468152  0.05228438    -0.38290
N307        N  0.38938297  0.31327510  0.47536078    -0.37730
N308        N  0.55048283  0.33167472  0.12699450    -0.37740
C309        C  0.46961827  0.11892001  0.03209997    -0.04400
C310        C  0.49328081  0.15652922  0.02126110    -0.01520
C311        C  0.49294239  0.18453173  0.04494813     0.03470
C312        C  0.46626551  0.17585677  0.07657810    -0.04400
C313        C  0.43991802  0.13887860  0.08434892    -0.01510
C314        C  0.44188968  0.11057299  0.06319839     0.03470
C315        C  0.51738941  0.16728652  0.98487098     0.38120
C316        C  0.40991048  0.12987615  0.11357264     0.38110
C317        C  0.41427178  0.07312010  0.07359293     0.36530
C318        C  0.52092332  0.22246845  0.03737932     0.36530
N319        N  0.39185884  0.04352081  0.08228679    -0.38290
N320        N  0.54324008  0.25269447  0.03146722    -0.38290
N321        N  0.38594505  0.12272149  0.13670378    -0.37730
N322        N  0.53654742  0.17626515  0.45578823    -0.37740
C323        C  0.46727816  0.29332477  0.30627886    -0.04400
C324        C  0.44369373  0.30684006  0.29484634    -0.01520
C325        C  0.44676062  0.33830986  0.31420581     0.03470
C326        C  0.47156513  0.35535502  0.34823809    -0.04400
C327        C  0.49309992  0.33960317  0.36172926    -0.01510
C328        C  0.49220818  0.31016349  0.33963918     0.03470
C329        C  0.41534970  0.28778556  0.26349983     0.38120
C330        C  0.51586858  0.35262713  0.39898934     0.38110
C331        C  0.51796863  0.29796300  0.35072628     0.36530
C332        C  0.42419930  0.35275231  0.29783249     0.36530
N333        N  0.53847482  0.28821902  0.35958305    -0.38290
N334        N  0.40594171  0.36375133  0.28427241    -0.38290
N335        N  0.53400535  0.36266366  0.42872286    -0.37730
N336        N  0.39275600  0.27263541  0.23858530    -0.37740
C337        C  0.47284105  0.11800123  0.34787396    -0.04400
C338        C  0.44026418  0.11981693  0.35280753    -0.01520
C339        C  0.43594212  0.14679605  0.33108547     0.03470
C340        C  0.46457420  0.17280116  0.30530334    -0.04400
C341        C  0.49738771  0.17139415  0.30105932    -0.01510
C342        C  0.50108295  0.14354300  0.32133493     0.03470
C343        C  0.41134069  0.09428110  0.38074574     0.38120
C344        C  0.52766392  0.19900881  0.27615579     0.38110
C345        C  0.53287925  0.13971529  0.31252139     0.36530
C346        C  0.40173319  0.14729290  0.33447304     0.36530
N347        N  0.55787975  0.13630057  0.30450840    -0.38290
N348        N  0.37436236  0.14756708  0.33700281    -0.38290
N349        N  0.55178351  0.22119444  0.25643038    -0.37730
N350        N  0.38823698  0.07412707  0.40315202    -0.37740
C351        C  0.68462093  0.51717493  0.30477180    -0.04400
C352        C  0.68546314  0.54850596  0.32111973    -0.01520
C353        C  0.65389301  0.54563890  0.34048302     0.03470
C354        C  0.62133221  0.51105816  0.34437372    -0.04400
C355        C  0.62052193  0.47985531  0.32690879    -0.01510
C356        C  0.65208983  0.48290628  0.30747349     0.03470
C357        C  0.71887694  0.58384365  0.31760464     0.38120
C358        C  0.58669114  0.44482849  0.32663496     0.38110
C359        C  0.65115675  0.45070470  0.29007299     0.36530
C360        C  0.65588910  0.57843947  0.35729602     0.36530
N361        N  0.65052484  0.42512925  0.27610118    -0.38290
N362        N  0.65896530  0.60524383  0.37074726    -0.38290
N363        N  0.55985850  0.41677916  0.32564171    -0.37730
N364        N  0.74553857  0.61199112  0.31483895    -0.37740
C365        C  0.80502265  0.51922774  0.30676155    -0.04400
C366        C  0.84250928  0.54330292  0.29779639    -0.01520
C367        C  0.86995628  0.53728541  0.31541050     0.03470
C368        C  0.86067371  0.50842719  0.34530988    -0.04400
C369        C  0.82258255  0.48429908  0.35407423    -0.01510
C370        C  0.79524556  0.48962127  0.33480391     0.03470
C371        C  0.85307351  0.57478892  0.27036349     0.38120
C372        C  0.81035860  0.45230740  0.38093590     0.38110
C373        C  0.75666554  0.46346791  0.34285493     0.36530
C374        C  0.90737556  0.56030262  0.30033403     0.36530
N375        N  0.72597615  0.44273873  0.34947267    -0.38290
N376        N  0.93691156  0.57865177  0.28748505    -0.38290
N377        N  0.79996214  0.42620959  0.40149001    -0.37730
N378        N  0.86152802  0.59978544  0.24840748    -0.37740
C379        C  0.62037951  0.50835497  0.03717207    -0.04400
C380        C  0.65520763  0.52534695  0.01769237    -0.01520
C381        C  0.68638380  0.53009887  0.03988209     0.03470
C382        C  0.68231699  0.51412801  0.08029511    -0.04400
C383        C  0.64680930  0.49634664  0.09934985    -0.01510
C384        C  0.61678698  0.49594692  0.07896998     0.03470
C385        C  0.65918819  0.53863355  0.47495379     0.38120
C386        C  0.64018688  0.47667070  0.13893202     0.38110
C387        C  0.58190295  0.48218369  0.10083186     0.36530
C388        C  0.72260703  0.55273486  0.02151488     0.36530
N389        N  0.55413352  0.47138783  0.11824034    -0.38290
N390        N  0.75143298  0.57075255  0.50671661    -0.38290
N391        N  0.63462875  0.46082191  0.17040870    -0.37730
N392        N  0.66270097  0.54920647  0.44075997    -0.37740
C393        C  0.79664142  0.50232395  0.08083207    -0.04400
C394        C  0.78895544  0.47307931  0.05385925    -0.01520
C395        C  0.81786732  0.47084940  0.03388792     0.03470
C396        C  0.85542103  0.49840300  0.04018012    -0.04400
C397        C  0.86271541  0.52697339  0.06903308    -0.01510
C398        C  0.83361902  0.52930957  0.08808920     0.03470
C399        C  0.75108787  0.44442765  0.04759519     0.38120
C400        C  0.89993908  0.55384578  0.08108477     0.38110
C401        C  0.84197652  0.56027347  0.11494736     0.36530
C402        C  0.80816086  0.43822832  0.50960867     0.36530
N403        N  0.84867748  0.58482965  0.13645369    -0.38290
N404        N  0.79995988  0.41161692  0.49134698    -0.38290
N405        N  0.92929977  0.57518423  0.09173091    -0.37730
N406        N  0.72089222  0.42160650  0.54247588    -0.37740
C407        C  0.62277207  0.11813984  0.03842052    -0.04400
C408        C  0.65527056  0.11605816  0.04375460    -0.01520
C409        C  0.68575444  0.14394521  0.06520166     0.03470
C410        C  0.68479330  0.17491558  0.07976013    -0.04400
C411        C  0.65306861  0.17769858  0.07361601    -0.01510
C412        C  0.62187891  0.14906266  0.05412272     0.03470
C413        C  0.65840609  0.08619729  0.02593477     0.38120
C414        C  0.65261620  0.21019915  0.08751006     0.38110
C415        C  0.58827785  0.15071287  0.05273377     0.36530
C416        C  0.71821616  0.14079624  0.07252336     0.36530
N417        N  0.56153632  0.15222957  0.05265324    -0.38290
N418        N  0.74404341  0.13825556  0.07862245    -0.38290
N419        N  0.65251469  0.23628804  0.09838482    -0.37730
N420        N  0.66213697  0.06305448  0.01178915    -0.37740
C421        C  0.80323438  0.29376453  0.07732955    -0.04400
C422        C  0.80620561  0.32839541  0.08273454    -0.01520
C423        C  0.83503956  0.35972314  0.06323678     0.03470
C424        C  0.85985048  0.35638690  0.03630877    -0.04400
C425        C  0.85736621  0.32186827  0.03164415    -0.01510
C426        C  0.82908335  0.29063365  0.05204555     0.03470
C427        C  0.77960980  0.33181373  0.10857576     0.38120
C428        C  0.88471917  0.31861823  0.00723155     0.38110
C429        C  0.82728971  0.25548435  0.04820889     0.36530
C430        C  0.84151346  0.39570511  0.07454148     0.36530
N431        N  0.82587989  0.22745107  0.04528328    -0.38290
N432        N  0.84721269  0.42429826  0.08497640    -0.38290
N433        N  0.90680810  0.31580861  0.48852421    -0.37730
N434        N  0.75831531  0.33442852  0.12912883    -0.37740
C435        C  0.68944310  0.17643774  0.30920187    -0.04400
C436        C  0.66522484  0.18441604  0.33118184    -0.01520
C437        C  0.63546599  0.15678047  0.35423592     0.03470
C438        C  0.62822230  0.11986045  0.35383025    -0.04400
C439        C  0.65412962  0.11271168  0.33313997    -0.01510
C440        C  0.68434132  0.14083835  0.31102286     0.03470
C441        C  0.67038056  0.22117495  0.32909217     0.38120
C442        C  0.65139003  0.07704532  0.33552382     0.38110
C443        C  0.71083787  0.13334839  0.29064655     0.36530
C444        C  0.61293104  0.16737112  0.37826540     0.36530
N445        N  0.73200461  0.12746060  0.27444610    -0.38290
N446        N  0.59537248  0.17631795  0.39742507    -0.38290
N447        N  0.65023838  0.04904210  0.33684177    -0.37730
N448        N  0.67452891  0.25045114  0.32734800    -0.37740
C449        C  0.80526372  0.29722088  0.30422809    -0.04400
C450        C  0.83088853  0.29368887  0.32965415    -0.01520
C451        C  0.85899842  0.32454938  0.35004316     0.03470
C452        C  0.86148063  0.35910200  0.34548851    -0.04400
C453        C  0.83611125  0.36270597  0.31964408    -0.01510
C454        C  0.80793824  0.33182277  0.29929624     0.03470
C455        C  0.82873584  0.25835985  0.33424841     0.38120
C456        C  0.84018163  0.39852569  0.31206007     0.38110
C457        C  0.78144268  0.33557550  0.27356829     0.36530
C458        C  0.88534782  0.32055502  0.37566324     0.36530
N459        N  0.76030515  0.33847905  0.25296852    -0.38290
N460        N  0.90635234  0.31691829  0.39560870    -0.38290
N461        N  0.84360157  0.42707685  0.30526461    -0.37730
N462        N  0.82695381  0.23017163  0.33798276    -0.37740
C463        C  0.34461374  0.47927042  0.34743329    -0.04400
C464        C  0.34646267  0.48586979  0.30386076    -0.01520
C465        C  0.31701797  0.48647436  0.28308044     0.03470
C466        C  0.28294455  0.47482031  0.30423489    -0.04400
C467        C  0.28095105  0.46631195  0.34780517    -0.01510
C468        C  0.31247809  0.47155706  0.36948486     0.03470
C469        C  0.37971682  0.49442853  0.28082655     0.38120
C470        C  0.24676573  0.45134032  0.37123934     0.38110
C471        C  0.31193109  0.47015344  0.41486312     0.36530
C472        C  0.32337932  0.50178491  0.24094309     0.36530
N473        N  0.31108993  0.47028219  0.45107796    -0.38290
N474        N  0.32908585  0.51436386  0.20748967    -0.38290
N475        N  0.22033945  0.43971460  0.39147875    -0.37730
N476        N  0.40620322  0.50121718  0.26247379    -0.37740
C477        C  0.16752187  0.48354416  0.30166007    -0.04400
C478        C  0.14596325  0.45651367  0.33191523    -0.01520
C479        C  0.11827708  0.45887029  0.35417700     0.03470
C480        C  0.11039800  0.48692077  0.34460659    -0.04400
C481        C  0.12933203  0.51173630  0.31149129    -0.01510
C482        C  0.15875685  0.51092921  0.29105937     0.03470
C483        C  0.15002865  0.42451465  0.33760284     0.38120
C484        C  0.11675762  0.53618279  0.29644915     0.38110
C485        C  0.17947247  0.53775988  0.25860660     0.36530
C486        C  0.09681240  0.43147431  0.38579549     0.36530
N487        N  0.19593630  0.55905945  0.23258193    -0.38290
N488        N  0.07948670  0.40935920  0.41067551    -0.38290
N489        N  0.10633121  0.55524608  0.28400335    -0.37730
N490        N  0.15247400  0.39848708  0.34156381    -0.37740
C491        C  0.28157223  0.46823177  0.08065283    -0.04400
C492        C  0.31587825  0.50069480  0.08420609    -0.01520
C493        C  0.34727595  0.50352170  0.06457230     0.03470
C494        C  0.34446129  0.47403034  0.04090602    -0.04400
C495        C  0.31022865  0.44124053  0.03810195    -0.01510
C496        C  0.27876935  0.43858493  0.05742955     0.03470
C497        C  0.31866758  0.53152876  0.10730091     0.38120
C498        C  0.30689081  0.41094394  0.51337896     0.38110
C499        C  0.24338785  0.40545102  0.05312364     0.36530
C500        C  0.38273941  0.53629135  0.07012773     0.36530
N501        N  0.21510865  0.37913313  0.04948266    -0.38290
N502        N  0.41097446  0.56235315  0.07512384    -0.38290
N503        N  0.30404618  0.38689020  0.49332137    -0.37730
N504        N  0.32082531  0.55611539  0.12565671    -0.37740
C505        C  0.10833910  0.47756308  0.03436055    -0.04400
C506        C  0.13752094  0.50760179  0.05510620    -0.01520
C507        C  0.16469771  0.50322128  0.07605751     0.03470
C508        C  0.16313613  0.46898309  0.07609125    -0.04400
C509        C  0.13440261  0.43912050  0.05517422    -0.01510
C510        C  0.10679135  0.44317797  0.03484817     0.03470
C511        C  0.13868998  0.54257469  0.05692600     0.38120
C512        C  0.13301630  0.40401158  0.05519903     0.38110
C513        C  0.07682356  0.41169021  0.51468600     0.36530
C514        C  0.19416108  0.53387048  0.09807727     0.36530
N515        N  0.05293980  0.38610452  0.49922369    -0.38290
N516        N  0.21762190  0.55822407  0.11575514    -0.38290
N517        N  0.13199786  0.37605560  0.05519677    -0.37730
N518        N  0.13977139  0.57051484  0.05872692    -0.37740
C519        C  0.10846962  0.63063749  0.03885479    -0.04400
C520        C  0.14458757  0.65025179  0.02167623    -0.01520
C521        C  0.17327767  0.67960404  0.04358012     0.03470
C522        C  0.16583146  0.69296572  0.08071628    -0.04400
C523        C  0.12941207  0.67498176  0.09669620    -0.01510
C524        C  0.10155248  0.64307868  0.07732002     0.03470
C525        C  0.15283367  0.64156217  0.48064374     0.38120
C526        C  0.12003667  0.68960598  0.13282294     0.38110
C527        C  0.06624363  0.62285834  0.09846069     0.36530
C528        C  0.21073485  0.69518277  0.52803214     0.36530
N529        N  0.03846161  0.60721433  0.11616660    -0.38290
N530        N  0.24043967  0.70748191  0.51526871    -0.38290
N531        N  0.11250137  0.70112103  0.16165747    -0.37730
N532        N  0.16033075  0.63549500  0.44793272    -0.37740
C533        C  0.34360464  0.86928973  0.03249588    -0.04400
C534        C  0.31360079  0.87463856  0.04265549    -0.01520
C535        C  0.28286425  0.84750035  0.06504558     0.03470
C536        C  0.28135809  0.81460390  0.07690360    -0.04400
C537        C  0.31031850  0.80843665  0.06578751    -0.01510
C538        C  0.34114670  0.83537988  0.04347507     0.03470
C539        C  0.31307721  0.90721524  0.02877360     0.38120
C540        C  0.30857456  0.77431414  0.07804173     0.38110
C541        C  0.37023549  0.82779128  0.03250604     0.36530
C542        C  0.25267689  0.85338047  0.07611564     0.36530
N543        N  0.39293082  0.82109517  0.02347605    -0.38290
N544        N  0.22859812  0.85803857  0.08501693    -0.38290
N545        N  0.30714678  0.74714070  0.08792401    -0.37730
N546        N  0.31160183  0.93270681  0.01788906    -0.37740
C547        C  0.11290485  0.63241553  0.35069211    -0.04400
C548        C  0.10841948  0.66183392  0.33569087    -0.01520
C549        C  0.13725674  0.69168076  0.31389880     0.03470
C550        C  0.17095597  0.69283162  0.30708572    -0.04400
C551        C  0.17602589  0.66425861  0.32237158    -0.01510
C552        C  0.14746549  0.63437678  0.34429907     0.03470
C553        C  0.07489316  0.66272534  0.34392259     0.38120
C554        C  0.21067454  0.66532548  0.31469021     0.38110
C555        C  0.15447324  0.60602695  0.36003867     0.36530
C556        C  0.13253441  0.72171294  0.29892890     0.36530
N557        N  0.16103806  0.58420909  0.37305134    -0.38290
N558        N  0.12886439  0.74569425  0.28696070    -0.38290
N559        N  0.23827375  0.66620469  0.30847427    -0.37730
N560        N  0.04849907  0.66418861  0.35015283    -0.37740
C561        C  0.29189215  0.80988197  0.30604507    -0.04400
C562        C  0.28568127  0.82927166  0.33822204    -0.01520
C563        C  0.31564672  0.85804115  0.35924029     0.03470
C564        C  0.35192974  0.86841214  0.34747620    -0.04400
C565        C  0.35834928  0.84926055  0.31559289    -0.01510
C566        C  0.32849912  0.81977475  0.29532187     0.03470
C567        C  0.24854205  0.82033067  0.34925129     0.38120
C568        C  0.39580340  0.86022658  0.30334936     0.38110
C569        C  0.33563711  0.79918702  0.26407777     0.36530
C570        C  0.30923752  0.87657428  0.39364800     0.36530
N571        N  0.34135800  0.78288092  0.23904200    -0.38290
N572        N  0.30424633  0.89124315  0.42128389    -0.38290
N573        N  0.42565559  0.86910018  0.29344283    -0.37730
N574        N  0.21893768  0.81313152  0.35822167    -0.37740
C575        C  0.50079241  0.69212195  0.30809658    -0.04400
C576        C  0.53011050  0.69486484  0.33242863    -0.01520
C577        C  0.52580064  0.66421282  0.35547478     0.03470
C578        C  0.49211828  0.63064592  0.35423874    -0.04400
C579        C  0.46232685  0.62852254  0.33135179    -0.01510
C580        C  0.46672008  0.65904001  0.30815146     0.03470
C581        C  0.56481530  0.72907116  0.33329087     0.38120
C582        C  0.42715015  0.59487474  0.33109264     0.38110
C583        C  0.43590706  0.65651337  0.28459674     0.36530
C584        C  0.55562908  0.66763252  0.38166696     0.36530
N585        N  0.41143804  0.65456005  0.26571033    -0.38290
N586        N  0.57936219  0.67054957  0.40280611    -0.38290
N587        N  0.39876421  0.56839382  0.33099536    -0.37730
N588        N  0.59248358  0.75639018  0.33401668    -0.37740
C589        C  0.49789740  0.80921420  0.30670112    -0.04400
C590        C  0.47696054  0.80246535  0.34387093    -0.01520
C591        C  0.47807297  0.83174998  0.36635916     0.03470
C592        C  0.49683523  0.86807777  0.34964677    -0.04400
C593        C  0.51662905  0.87436780  0.31133386    -0.01510
C594        C  0.51863747  0.84560338  0.29142876     0.03470
C595        C  0.45319579  0.76516538  0.35871947     0.38120
C596        C  0.53441815  0.91000563  0.29081477     0.38110
C597        C  0.54298726  0.85394383  0.25548530     0.36530
C598        C  0.46057739  0.82389879  0.40741956     0.36530
N599        N  0.56237290  0.86068832  0.22685869    -0.38290
N600        N  0.44669917  0.81727176  0.44018096    -0.38290
N601        N  0.54884174  0.93794402  0.27339045    -0.37730
N602        N  0.43430335  0.73548263  0.37066536    -0.37740
C603        C  0.48981659  0.62788641  0.03547841    -0.04400
C604        C  0.46657075  0.64190426  0.02267022    -0.01520
C605        C  0.46520359  0.66968721  0.04583877     0.03470
C606        C  0.48945000  0.68668387  0.07966473    -0.04400
C607        C  0.51455819  0.67486066  0.09061268    -0.01510
C608        C  0.51385988  0.64496614  0.06999388     0.03470
C609        C  0.44452941  0.62899071  0.48485870     0.38120
C610        C  0.54210874  0.69410764  0.12268992     0.38110
C611        C  0.53806440  0.63215427  0.08545614     0.36530
C612        C  0.43794044  0.68005298  0.03527919     0.36530
N613        N  0.55759587  0.62241450  0.09826074    -0.38290
N614        N  0.41621977  0.68828388  0.52677054    -0.38290
N615        N  0.56404419  0.70938204  0.14822560    -0.37730
N616        N  0.42701845  0.61905630  0.45465268    -0.37740
C617        C  0.49565852  0.86891747  0.03936997    -0.04400
C618        C  0.47444643  0.85327854  0.07581610    -0.01520
C619        C  0.47464068  0.82348162  0.09590797     0.03470
C620        C  0.49834648  0.81080300  0.08149711    -0.04400
C621        C  0.52095769  0.82792684  0.04588474    -0.01510
C622        C  0.51876350  0.85616107  0.02425855     0.03470
C623        C  0.45257246  0.86814931  0.09284024     0.38120
C624        C  0.54728378  0.81741684  0.03201854     0.38110
C625        C  0.54023255  0.87215729  0.48633485     0.36530
C626        C  0.44933679  0.80526381  0.13056335     0.36530
N627        N  0.55712974  0.88484717  0.45594491    -0.38290
N628        N  0.42916909  0.79085832  0.15821655    -0.38290
N629        N  0.56829116  0.80906086  0.52086050    -0.37730
N630        N  0.43533581  0.88019107  0.10647103    -0.37740
C631        C  0.48976979  0.71762791  0.60301151     0.04060
C632        C  0.48795826  0.71676126  0.64711913    -0.12080
C633        C  0.49545476  0.74820322  0.67012373     0.01570
C634        C  0.50245600  0.77989947  0.64739978    -0.10610
C635        C  0.49873674  0.77946164  0.60360532     0.04060
C636        C  0.49373944  0.74863311  0.58150720    -0.10030
H637        H  0.48152518  0.69146726  0.66291787     0.09650
H638        H  0.51013652  0.80523184  0.66337772     0.07180
H639        H  0.49300155  0.74878261  0.54756085     0.07030
C640        C  0.50443443  0.72408317  0.78405872     0.04060
C641        C  0.50258609  0.72303180  0.74013162    -0.12080
C642        C  0.49685490  0.74855407  0.71731222     0.01570
C643        C  0.49244188  0.77464854  0.74027832    -0.10610
C644        C  0.49848011  0.77852241  0.78383884     0.04060
C645        C  0.50491989  0.75314220  0.80540623    -0.10030
H646        H  0.50498165  0.70163379  0.72458051     0.09650
H647        H  0.48452287  0.79248740  0.72462532     0.07180
H648        H  0.50877079  0.75495625  0.83909926     0.07030
C649        C  0.26021828  0.77997795  0.78299416     0.04060
C650        C  0.25829666  0.78152525  0.73902889    -0.12080
C651        C  0.22811252  0.75425314  0.71643138     0.01570
C652        C  0.19888336  0.72628541  0.73997836    -0.10610
C653        C  0.20107834  0.72391719  0.78362490     0.04060
C654        C  0.23193532  0.75038720  0.80492139    -0.10030
H655        H  0.28093469  0.80434355  0.72330738     0.09650
H656        H  0.17390748  0.70592226  0.72520620     0.07180
H657        H  0.23360831  0.74821450  0.83867954     0.07030
C658        C  0.24978764  0.78624197  0.60145543     0.03940
C659        C  0.25175795  0.78595345  0.64527245    -0.12080
C660        C  0.22666665  0.75497972  0.66903458     0.01570
C661        C  0.20063917  0.72396696  0.64656471    -0.10610
C662        C  0.19592975  0.72541505  0.60299904     0.04060
C663        C  0.22047578  0.75729448  0.58080201    -0.10030
H664        H  0.27375500  0.80997506  0.65963543     0.09650
H665        H  0.18377123  0.69808495  0.66231938     0.07180
H666        H  0.21801705  0.75907435  0.54714138     0.07030
C667        C  0.19082214  0.46415766  0.59978822     0.04060
C668        C  0.22115760  0.46629264  0.57912507    -0.12080
C669        C  0.24877196  0.46497608  0.60221844     0.01570
C670        C  0.24634964  0.46231731  0.64610009    -0.10610
C671        C  0.21591643  0.46005103  0.66784918     0.04060
C672        C  0.18761826  0.45979282  0.64348418    -0.10030
H673        H  0.22365093  0.46974224  0.54530999     0.09650
H674        H  0.26933345  0.46341849  0.66251984     0.07180
H675        H  0.16308695  0.45723122  0.65755140     0.07030
C676        C  0.19669161  0.48052825  0.77861655     0.04060
C677        C  0.19200443  0.47137906  0.73616942    -0.12080
C678        C  0.21611332  0.46262906  0.71510381     0.01570
C679        C  0.24246382  0.45941771  0.73966355    -0.10610
C680        C  0.25037254  0.47255819  0.78114089     0.04060
C681        C  0.22751718  0.48411889  0.79981282    -0.10030
H682        H  0.16932234  0.47149167  0.72051434     0.09650
H683        H  0.25776076  0.44752475  0.72654077     0.07180
H684        H  0.23284342  0.49522058  0.83115570     0.07030
C685        C  0.77602744  0.26479068  0.78216654     0.04060
C686        C  0.77593140  0.26332104  0.73824114    -0.12080
C687        C  0.74840363  0.23282662  0.71620724     0.01570
C688        C  0.72085697  0.20385451  0.74062542    -0.10610
C689        C  0.72041949  0.20569545  0.78457758     0.04060
C690        C  0.74828497  0.23595422  0.80516552    -0.10030
H691        H  0.79760439  0.28685358  0.72240163     0.09650
H692        H  0.69895711  0.17961138  0.72654839     0.07180
H693        H  0.74800810  0.23734529  0.83912155     0.07030
C694        C  0.77455342  0.26140837  0.60066428     0.04060
C695        C  0.77643588  0.26012872  0.64449826    -0.12080
C696        C  0.74774764  0.23200391  0.66858401     0.01570
C697        C  0.71790716  0.20396527  0.64617183    -0.10610
C698        C  0.71682074  0.20430618  0.60215707     0.04060
C699        C  0.74496453  0.23320438  0.57949719    -0.10030
H700        H  0.80064835  0.28201238  0.65866904     0.09650
H701        H  0.69466583  0.18171018  0.66183386     0.07180
H702        H  0.74346824  0.23410089  0.54557659     0.07030
C703        C  0.71448536  0.51508894  0.60234214     0.04060
C704        C  0.73858226  0.50641256  0.58126432    -0.12080
C705        C  0.76645863  0.50437796  0.60324842     0.01570
C706        C  0.76705323  0.50623139  0.64710894    -0.10610
C707        C  0.74457271  0.51657702  0.66899534     0.04060
C708        C  0.72026109  0.52348529  0.64526433    -0.10030
H709        H  0.73595038  0.50144887  0.54784404     0.09650
H710        H  0.78606940  0.50024402  0.66321945     0.07180
H711        H  0.70459531  0.53436154  0.65994680     0.07030
C712        C  0.71704922  0.52043907  0.78238237     0.04060
C713        C  0.71633890  0.51813117  0.73861277    -0.12080
C714        C  0.74585419  0.51946553  0.71606083     0.01570
C715        C  0.77549368  0.52158743  0.73930233    -0.10610
C716        C  0.77586586  0.52253042  0.78338341     0.04060
C717        C  0.74706642  0.52335350  0.80469996    -0.10030
H718        H  0.69181085  0.51412288  0.72291690     0.09650
H719        H  0.79848417  0.52192266  0.72382255     0.07180
H720        H  0.74713122  0.52448269  0.83867339     0.07030
C721        C  0.46080987  0.20175990  0.78250067     0.04060
C722        C  0.46174749  0.23078385  0.80452971    -0.12080
C723        C  0.46576926  0.26175240  0.78296584     0.01570
C724        C  0.46854634  0.26297205  0.73885812    -0.10610
C725        C  0.46386391  0.23248991  0.71554118     0.04060
C726        C  0.45985849  0.20182610  0.73848963    -0.10030
H727        H  0.46051868  0.22966838  0.83850772     0.09650
H728        H  0.47444739  0.28821319  0.72343216     0.07180
H729        H  0.45653861  0.17768350  0.72305950     0.07030
C730        C  0.46481416  0.20544026  0.60047987     0.04060
C731        C  0.46717342  0.20642391  0.64451374    -0.12080
C732        C  0.46343710  0.23280407  0.66798337     0.01570
C733        C  0.45946960  0.25959949  0.64513746    -0.10610
C734        C  0.45999001  0.26036302  0.60107681     0.04060
C735        C  0.46116291  0.23250128  0.57906093    -0.10030
H736        H  0.47223907  0.18637274  0.65958148     0.09650
H737        H  0.45650926  0.28063479  0.66066975     0.07180
H738        H  0.46046193  0.23261171  0.54504854     0.07030
O739        O  0.51432712  0.58812947  0.52005000    -0.74360
O740        O  0.46026605  0.57559257  0.99044964    -0.53260
C741        C  0.48817122  0.59524290  0.51379347     0.79370
O742        O  0.57787454  0.53038278  0.85843643    -0.58960
O743        O  0.57254739  0.48057818  0.89369332    -0.51990
C744        C  0.58844440  0.50714479  0.86700660     0.71390
O745        O  0.51328740  0.58879728  0.86410358    -0.73520
O746        O  0.46230839  0.57920550  0.90049878    -0.54080
C747        C  0.48896303  0.59738502  0.87451500     0.77390
O748        O  0.57684535  0.52703285  0.52479251    -0.58660
O749        O  0.57291499  0.47946020  0.98662485    -0.51780
C750        C  0.58791983  0.50467395  0.51452971     0.73980
Zr751      Zr  0.52808663  0.53930743  0.00457643     2.54710
O752        O  0.58575561  0.59696094  0.00987277    -0.79230
O753        O  0.52021179  0.53196668  0.58042922    -0.92640
Zr754      Zr  0.52804169  0.54101405  0.87975378     2.64680
O755        O  0.58247850  0.60148007  0.87824604    -0.97600
O756        O  0.52334232  0.53773076  0.80353821    -0.79660
O757        O  0.50975927  0.55710035  0.94272637    -0.83020
O758        O  0.54791688  0.52454137  0.94159372    -2.17730
O759        O  0.45185048  0.39585898  0.52034727    -0.66410
O760        O  0.50335397  0.40599545  0.98467571    -0.50970
C761        C  0.47659422  0.38763154  0.51046907     0.72360
O762        O  0.38722893  0.45880978  0.85970314    -0.59310
O763        O  0.39190911  0.50651939  0.89811253    -0.51290
C764        C  0.37664510  0.48162717  0.87003096     0.74170
O765        O  0.44956797  0.39722135  0.86236178    -0.70710
O766        O  0.50253380  0.40792931  0.89352942    -0.49390
C767        C  0.47482507  0.38900474  0.86940438     0.75550
O768        O  0.38728907  0.45456123  0.52624300    -0.66040
O769        O  0.39248796  0.50444315  0.99114813    -0.53240
C770        C  0.37693556  0.47796219  0.51792061     0.73930
Zr771      Zr  0.43635778  0.44334508  0.00430742     2.77540
O772        O  0.37819045  0.38581271  0.00602701    -0.96790
O773        O  0.44195547  0.44558900  0.58043576    -0.77610
Zr774      Zr  0.43594690  0.44572006  0.87927996     2.70070
O775        O  0.37836054  0.38809577  0.87307257    -0.78860
O776        O  0.44437269  0.45415295  0.80358199    -0.97940
Zr777      Zr  0.44440968  0.52502985  0.94364986     2.21500
Zr778      Zr  0.51998471  0.45939634  0.94049862     2.11130
O779        O  0.45432616  0.42755454  0.94108044    -2.46630
O780        O  0.41623015  0.46004391  0.94260010    -0.78650
O781        O  0.50161440  0.47460935  0.50450997    -0.70840
O782        O  0.46288880  0.51027927  0.87942635    -2.31800
O783        O  0.46307521  0.50794084  0.50641620    -2.28010
O784        O  0.50119936  0.47640437  0.87769332    -0.72600
H785        H  0.57442116  0.53616024  0.94143913     0.79390
H786        H  0.45447252  0.51834442  0.85557639     0.80480
H787        H  0.44430745  0.40135658  0.94083914     0.82710
H788        H  0.45476058  0.51503507  0.53101072     0.80310
H789        H  0.50170292  0.54032841  0.79690023     0.43350
H790        H  0.46021730  0.44381573  0.79607451     0.42320
H791        H  0.36782488  0.38293596  0.90177671     0.42000
H792        H  0.37863953  0.37280022  0.98051833     0.39930
H793        H  0.46727458  0.45054103  0.58577242     0.43060
H794        H  0.50542363  0.54346723  0.58796648     0.37850
H795        H  0.58849464  0.60911600  0.98231628     0.43960
H796        H  0.59826301  0.60067212  0.90081258     0.40380
H797        H  0.38036866  0.37163835  0.52970868     0.45300
H798        H  0.54495595  0.54859755  0.59189834     0.44020
H799        H  0.59514029  0.60241540  0.85167651     0.44160
H800        H  0.41999194  0.43682159  0.79176306     0.44510
O801        O  0.04857364  0.58986855  0.86140133    -0.74360
O802        O  0.09017357  0.58351285  0.90098620    -0.53260
C803        C  0.08184930  0.59991055  0.87254217     0.79370
O804        O  0.91990949  0.52034261  0.52714122    -0.58960
O805        O  0.87815106  0.47449776  0.98678400    -0.51990
C806        C  0.88645244  0.49752859  0.51669897     0.71390
O807        O  0.04477384  0.58869535  0.52398487    -0.73520
O808        O  0.08801818  0.57976703  0.99201078    -0.54080
C809        C  0.07847736  0.59755733  0.51687140     0.77390
O810        O  0.92415638  0.52771631  0.85932025    -0.58660
O811        O  0.88083024  0.47810943  0.89468075    -0.51780
C812        C  0.89037404  0.50423841  0.86766105     0.73980
Zr813      Zr  0.98578012  0.54247693  0.88075258     2.54710
O814        O  0.98369792  0.59903868  0.88429024    -0.79230
O815        O  0.98712011  0.54263523  0.80431502    -0.92640
Zr816      Zr  0.98313643  0.53963619  0.00531929     2.64680
O817        O  0.98125925  0.59649908  0.00360353    -0.97600
O818        O  0.98254275  0.53649151  0.58164210    -0.79660
O819        O  0.02009623  0.55942987  0.94376450    -0.83020
O820        O  0.94881148  0.52383577  0.94235681    -2.17730
O821        O  0.92424007  0.40072882  0.85900319    -0.66410
O822        O  0.88055954  0.40763286  0.89389707    -0.50970
C823        C  0.89067696  0.39138368  0.86751729     0.72360
O824        O  0.04550257  0.45799041  0.52226203    -0.59310
O825        O  0.08899340  0.50899836  0.98775727    -0.51290
C826        C  0.07906176  0.48181543  0.51330396     0.74170
O827        O  0.92263870  0.39835368  0.52396954    -0.70710
O828        O  0.87983962  0.40600048  0.98782588    -0.49390
C829        C  0.88935529  0.38914387  0.51458789     0.75550
O830        O  0.04754717  0.46425724  0.85826459    -0.66040
O831        O  0.08990679  0.51362608  0.89535618    -0.53240
C832        C  0.08068735  0.48856325  0.86752765     0.73930
Zr833      Zr  0.98567493  0.44842862  0.87953106     2.77540
O834        O  0.98959785  0.39272530  0.87857119    -0.96790
O835        O  0.98515275  0.45243590  0.80329231    -0.77610
Zr836      Zr  0.98411625  0.44627530  0.00440425     2.70070
O837        O  0.98211678  0.38770224  0.00914486    -0.78860
O838        O  0.98504199  0.45214147  0.58039862    -0.97940
Zr839      Zr  0.05522035  0.52926961  0.94385860     2.21500
Zr840      Zr  0.91394184  0.45856497  0.94111108     2.11130
O841        O  0.94940233  0.42857804  0.94146281    -2.46630
O842        O  0.02043706  0.46414647  0.94245172    -0.78650
O843        O  0.94982780  0.47757567  0.87840924    -0.70840
O844        O  0.01955362  0.51094503  0.50673686    -2.31800
O845        O  0.02139424  0.51322973  0.87997606    -2.28010
O846        O  0.94773378  0.47480008  0.50490619    -0.72600
H847        H  0.93288030  0.53425768  0.94240563     0.79390
H848        H  0.03517025  0.51839735  0.53119194     0.80480
H849        H  0.93379127  0.40226846  0.94116835     0.82710
H850        H  0.03765186  0.52178115  0.85592796     0.80310
H851        H  0.00056564  0.52868499  0.58881926     0.43350
H852        H  0.96223254  0.45256681  0.58717288     0.42320
H853        H  0.98238510  0.38077147  0.97959994     0.42000
H854        H  0.97439645  0.37809529  0.90270781     0.39930
H855        H  0.96593169  0.45886422  0.79708105     0.43060
H856        H  0.00451820  0.53409989  0.79703296     0.37850
H857        H  0.99184966  0.60800999  0.91312383     0.43960
H858        H  0.95515739  0.58907331  0.99876289     0.40380
H859        H  0.97549721  0.37929774  0.85351417     0.45300
H860        H  0.00012062  0.56887391  0.79617559     0.44020
H861        H  0.98607810  0.60530194  0.53289442     0.44160
H862        H  0.98055260  0.42815696  0.59123911     0.44510
O863        O  0.52019554  0.93206886  0.86364190    -0.74360
O864        O  0.46806186  0.89009273  0.89699457    -0.53260
C865        C  0.49502805  0.89875425  0.87157872     0.79370
O866        O  0.58036696  0.05490284  0.52630913    -0.58960
O867        O  0.57318440  0.09772915  0.98977815    -0.51990
C868        C  0.58994704  0.08830309  0.51673553     0.71390
O869        O  0.51721855  0.93172563  0.52732612    -0.73520
O870        O  0.46806837  0.88945653  0.98971103    -0.54080
C871        C  0.49358859  0.89868784  0.51717143     0.77390
O872        O  0.58358578  0.05591228  0.86385153    -0.58660
O873        O  0.57614295  0.09778340  0.90025412    -0.51780
C874        C  0.59385777  0.08921864  0.87404439     0.73980
Zr875      Zr  0.53401351  0.99408045  0.88184270     2.54710
O876        O  0.58978961  0.99002191  0.88055497    -0.79230
O877        O  0.53041800  0.99851995  0.80597606    -0.92640
Zr878      Zr  0.53183882  0.99342610  0.00682869     2.64680
O879        O  0.58674381  0.98783068  0.00543970    -0.97600
O880        O  0.52989421  0.99449748  0.58315018    -0.79660
O881        O  0.51556917  0.95852989  0.94450832    -0.83020
O882        O  0.55141954  0.02890337  0.94428598    -2.17730
O883        O  0.45246207  0.05537085  0.86054802    -0.66410
O884        O  0.50365459  0.09817530  0.89496264    -0.50970
C885        C  0.47671124  0.08863047  0.86921059     0.72360
O886        O  0.38786498  0.93249639  0.52189129    -0.59310
O887        O  0.39493160  0.89010589  0.98558482    -0.51290
C888        C  0.37759008  0.89921039  0.51178943     0.74170
O889        O  0.45059491  0.05548412  0.52079580    -0.70710
O890        O  0.50150225  0.09813815  0.98666280    -0.49390
C891        C  0.47415969  0.08898889  0.51173873     0.75550
O892        O  0.39210602  0.93155921  0.85993216    -0.66040
O893        O  0.39960721  0.88904842  0.89690088    -0.53240
C894        C  0.38325816  0.89838273  0.86961208     0.73930
Zr895      Zr  0.43962723  0.99372155  0.87890020     2.77540
O896        O  0.38018338  0.99034422  0.87279313    -0.96790
O897        O  0.44736694  0.99515695  0.80305222    -0.77610
Zr898      Zr  0.43770898  0.99384506  0.00394458     2.70070
O899        O  0.38159668  0.99721469  0.00339584    -0.78860
O900        O  0.44012778  0.99249091  0.58024842    -0.97940
Zr901      Zr  0.45032822  0.92383057  0.94342387     2.21500
Zr902      Zr  0.52126849  0.06415359  0.94286591     2.11130
O903        O  0.45579304  0.02884652  0.94113780    -2.46630
O904        O  0.41994769  0.95860798  0.94178635    -0.78650
O905        O  0.50487410  0.02993409  0.87952016    -0.70840
O906        O  0.46664173  0.95787891  0.50682639    -2.31800
O907        O  0.46900608  0.95827806  0.87961689    -2.28010
O908        O  0.50279742  0.02950858  0.50657411    -0.72600
H909        H  0.57783244  0.04435223  0.94486525     0.79390
H910        H  0.45795262  0.94178233  0.53105130     0.80480
H911        H  0.44500989  0.04442134  0.94051274     0.82710
H912        H  0.46149582  0.94250750  0.85544052     0.80310
H913        H  0.50385400  0.97739207  0.59055460     0.43350
H914        H  0.45959883  0.01744462  0.58801500     0.42320
H915        H  0.37404798  0.99388516  0.97358776     0.42000
H916        H  0.37962532  0.00535145  0.89618587     0.39930
H917        H  0.47094061  0.01791632  0.79741204     0.43060
H918        H  0.51207913  0.97351263  0.79697574     0.37850
H919        H  0.58877313  0.97681164  0.90681179     0.43960
H920        H  0.60204351  0.00465140  0.98265753     0.40380
H921        H  0.38206939  0.00460291  0.84713160     0.45300
H922        H  0.55430307  0.00244519  0.79539002     0.44020
H923        H  0.59981972  0.99945054  0.53171649     0.44160
H924        H  0.41694177  0.99102621  0.58963358     0.44510
C925        C  0.46379466  0.29271504  0.57762419    -0.04400
C926        C  0.49738738  0.32618276  0.57938561    -0.01520
C927        C  0.50254979  0.35646132  0.55503016     0.03470
C928        C  0.47343893  0.35428662  0.53069589    -0.04400
C929        C  0.44031960  0.32037690  0.52764471    -0.01510
C930        C  0.43563833  0.28959571  0.55076522     0.03470
C931        C  0.52701815  0.32927551  0.60576763     0.38120
C932        C  0.41186813  0.31657148  0.99881740     0.38110
C933        C  0.40186275  0.25474336  0.54697705     0.36530
C934        C  0.53832579  0.38927603  0.55397518     0.36530
N935        N  0.37500430  0.22688244  0.54376196    -0.38290
N936        N  0.56744301  0.41471128  0.55236408    -0.38290
N937        N  0.38934171  0.31326463  0.97540607    -0.37730
N938        N  0.55046899  0.33168990  0.62704905    -0.37740
C939        C  0.46961725  0.11892064  0.53209914    -0.04400
C940        C  0.49328081  0.15652964  0.52126014    -0.01520
C941        C  0.49294420  0.18453278  0.54494763     0.03470
C942        C  0.46626716  0.17585887  0.57657711    -0.04400
C943        C  0.43991789  0.13888101  0.58434697    -0.01510
C944        C  0.44188843  0.11057464  0.56319677     0.03470
C945        C  0.51738858  0.16728613  0.48486932     0.38120
C946        C  0.40990968  0.12987971  0.61356922     0.38110
C947        C  0.41426910  0.07312210  0.57359047     0.36530
C948        C  0.52092728  0.22246888  0.53737991     0.36530
N949        N  0.39185508  0.04352307  0.58228362    -0.38290
N950        N  0.54324587  0.25269435  0.53146858    -0.38290
N951        N  0.38594370  0.12272599  0.63669917    -0.37730
N952        N  0.53654904  0.17626612  0.95579052    -0.37740
C953        C  0.46727344  0.29332339  0.80627862    -0.04400
C954        C  0.44369041  0.30683990  0.79484413    -0.01520
C955        C  0.44675764  0.33831016  0.81420286     0.03470
C956        C  0.47156006  0.35535395  0.84823725    -0.04400
C957        C  0.49309283  0.33960052  0.86173073    -0.01510
C958        C  0.49220179  0.31016111  0.83964067     0.03470
C959        C  0.41534740  0.28778620  0.76349634     0.38120
C960        C  0.51585913  0.35262291  0.89899273     0.38110
C961        C  0.51796151  0.29796013  0.85072945     0.36530
C962        C  0.42419911  0.35275471  0.79782640     0.36530
N963        N  0.53846718  0.28821580  0.85958750    -0.38290
N964        N  0.40594400  0.36375570  0.78426381    -0.38290
N965        N  0.53399419  0.36265822  0.92872765    -0.37730
N966        N  0.39275447  0.27263665  0.73858084    -0.37740
C967        C  0.47284069  0.11800170  0.84787346    -0.04400
C968        C  0.44026352  0.11981683  0.85280735    -0.01520
C969        C  0.43594068  0.14679547  0.83108521     0.03470
C970        C  0.46457230  0.17280080  0.80530277    -0.04400
C971        C  0.49738609  0.17139431  0.80105836    -0.01510
C972        C  0.50108206  0.14354355  0.82133394     0.03470
C973        C  0.41134043  0.09428083  0.88074583     0.38120
C974        C  0.52766181  0.19900902  0.77615431     0.38110
C975        C  0.53287846  0.13971619  0.81251971     0.36530
C976        C  0.40173129  0.14729144  0.83447282     0.36530
N977        N  0.55787901  0.13630171  0.80450615    -0.38290
N978        N  0.37436009  0.14756490  0.83700256    -0.38290
N979        N  0.55178100  0.22119466  0.75642845    -0.37730
N980        N  0.38823701  0.07412668  0.90315232    -0.37740
C981        C  0.68460780  0.51716403  0.80477108    -0.04400
C982        C  0.68545123  0.54849817  0.82111072    -0.01520
C983        C  0.65388291  0.54563487  0.84047492     0.03470
C984        C  0.62132316  0.51105438  0.84437783    -0.04400
C985        C  0.62051128  0.47984854  0.82691901    -0.01510
C986        C  0.65207694  0.48289598  0.80748149     0.03470
C987        C  0.71886414  0.58383562  0.81758437     0.38120
C988        C  0.58668015  0.44482214  0.82665059     0.38110
C989        C  0.65114167  0.45069117  0.79008784     0.36530
C990        C  0.65587814  0.57844147  0.85726622     0.36530
N991        N  0.65050776  0.42511307  0.77612131    -0.38290
N992        N  0.65895524  0.60525275  0.87069623    -0.38290
N993        N  0.55984741  0.41677286  0.82566025    -0.37730
N994        N  0.74552507  0.61198282  0.81480966    -0.37740
C995        C  0.80501659  0.51923255  0.80677232    -0.04400
C996        C  0.84250218  0.54331418  0.79781011    -0.01520
C997        C  0.86995275  0.53730219  0.81542418     0.03470
C998        C  0.86067241  0.50843616  0.84531178    -0.04400
C999        C  0.82258146  0.48429881  0.85406854    -0.01510
C1000       C  0.79524242  0.48962265  0.83480769     0.03470
C1001       C  0.85306070  0.57479992  0.77037872     0.38120
C1002       C  0.81035991  0.45229267  0.88090538     0.38110
C1003       C  0.75666309  0.46346703  0.84285964     0.36530
C1004       C  0.90737381  0.56033403  0.80036050     0.36530
N1005       N  0.72597428  0.44273649  0.84947850    -0.38290
N1006       N  0.93691164  0.57869444  0.78752211    -0.38290
N1007       N  0.79996589  0.42618264  0.90143709    -0.37730
N1008       N  0.86151036  0.59979608  0.74842369    -0.37740
C1009       C  0.62039228  0.50834931  0.53716245    -0.04400
C1010       C  0.65521381  0.52528905  0.51766934    -0.01520
C1011       C  0.68638368  0.53002682  0.53986169     0.03470
C1012       C  0.68231112  0.51408011  0.58029044    -0.04400
C1013       C  0.64680719  0.49634278  0.59935508    -0.01510
C1014       C  0.61679900  0.49597059  0.57897327     0.03470
C1015       C  0.65918077  0.53873347  0.97499572     0.38120
C1016       C  0.64017009  0.47667851  0.63894769     0.38110
C1017       C  0.58192524  0.48225645  0.60084356     0.36530
C1018       C  0.72260717  0.55262434  0.52147834     0.36530
N1019       N  0.55416419  0.47149967  0.61825843    -0.38290
N1020       N  0.75143270  0.57089403  0.00676668    -0.38290
N1021       N  0.63459869  0.46083769  0.67043185    -0.37730
N1022       N  0.66268997  0.54934230  0.94081799    -0.37740
C1023       C  0.79661623  0.50223759  0.58086699    -0.04400
C1024       C  0.78893932  0.47299624  0.55389263    -0.01520
C1025       C  0.81785722  0.47077889  0.53391794     0.03470
C1026       C  0.85540754  0.49834353  0.54020564    -0.04400
C1027       C  0.86269368  0.52690722  0.56906443    -0.01510
C1028       C  0.83359164  0.52922971  0.58812652     0.03470
C1029       C  0.75107545  0.44433576  0.54762970     0.38120
C1030       C  0.89991520  0.55378786  0.58111346     0.38110
C1031       C  0.84194156  0.56018759  0.61499159     0.36530
C1032       C  0.80815959  0.43829712  0.00957706     0.36530
N1033       N  0.84863654  0.58473859  0.63650413    -0.38290
N1034       N  0.79994846  0.41168376  0.99131481    -0.38290
N1035       N  0.92927442  0.57513260  0.59175708    -0.37730
N1036       N  0.72090167  0.42170588  0.04244056    -0.37740
C1037       C  0.62277053  0.11814323  0.53842307    -0.04400
C1038       C  0.65526987  0.11606311  0.54375633    -0.01520
C1039       C  0.68575357  0.14395108  0.56520268     0.03470
C1040       C  0.68479138  0.17492086  0.57976199    -0.04400
C1041       C  0.65306597  0.17770251  0.57361829    -0.01510
C1042       C  0.62187653  0.14906573  0.55412521     0.03470
C1043       C  0.65840623  0.08620260  0.52593678     0.38120
C1044       C  0.65261294  0.21020294  0.58751140     0.38110
C1045       C  0.58827483  0.15071465  0.55273655     0.36530
C1046       C  0.71821590  0.14080303  0.57252397     0.36530
N1047       N  0.56153274  0.15223029  0.55265637    -0.38290
N1048       N  0.74404362  0.13826308  0.57862267    -0.38290
N1049       N  0.65251094  0.23629179  0.59838529    -0.37730
N1050       N  0.66213761  0.06306001  0.51179143    -0.37740
C1051       C  0.80325296  0.29375162  0.57733586    -0.04400
C1052       C  0.80623220  0.32838498  0.58275222    -0.01520
C1053       C  0.83506495  0.35971192  0.56325219     0.03470
C1054       C  0.85986443  0.35637270  0.53630819    -0.04400
C1055       C  0.85737428  0.32185232  0.53163423    -0.01510
C1056       C  0.82909333  0.29061808  0.55203871     0.03470
C1057       C  0.77964517  0.33180678  0.60860626     0.38120
C1058       C  0.88472126  0.31860082  0.50721129     0.38110
C1059       C  0.82729280  0.25546647  0.54819115     0.36530
C1060       C  0.84155129  0.39569528  0.57457145     0.36530
N1061       N  0.82587757  0.22743131  0.54525682    -0.38290
N1062       N  0.84726092  0.42428907  0.58501823    -0.38290
N1063       N  0.90680984  0.31582657  0.98855206    -0.37730
N1064       N  0.75835760  0.33442446  0.62916927    -0.37740
C1065       C  0.68944738  0.17643545  0.80920307    -0.04400
C1066       C  0.66522695  0.18441330  0.83117958    -0.01520
C1067       C  0.63546767  0.15677812  0.85423338     0.03470
C1068       C  0.62822440  0.11985834  0.85382948    -0.04400
C1069       C  0.65413275  0.11270950  0.83314176    -0.01510
C1070       C  0.68434588  0.14083618  0.81102617     0.03470
C1071       C  0.67038014  0.22117117  0.82908596     0.38120
C1072       C  0.65139255  0.07704292  0.83552657     0.38110
C1073       C  0.71084387  0.13334624  0.79065365     0.36530
C1074       C  0.61293172  0.16736894  0.87826071     0.36530
N1075       N  0.73201161  0.12745826  0.77445606    -0.38290
N1076       N  0.59537244  0.17631591  0.89741876    -0.38290
N1077       N  0.65024044  0.04903951  0.83684516    -0.37730
N1078       N  0.67452642  0.25044648  0.82733872    -0.37740
C1079       C  0.80525232  0.29723356  0.80422896    -0.04400
C1080       C  0.83087406  0.29369991  0.82965965    -0.01520
C1081       C  0.85898222  0.32455907  0.85005237     0.03470
C1082       C  0.86146892  0.35911325  0.84549332    -0.04400
C1083       C  0.83610483  0.36271972  0.81964194    -0.01510
C1084       C  0.80793051  0.33183692  0.79929431     0.03470
C1085       C  0.82872132  0.25837078  0.83425383     0.38120
C1086       C  0.84018408  0.39854174  0.81204790     0.38110
C1087       C  0.78143748  0.33559174  0.77356407     0.36530
C1088       C  0.88532580  0.32056188  0.87568052     0.36530
N1089       N  0.76030180  0.33849698  0.75296268    -0.38290
N1090       N  0.90632546  0.31692297  0.89563301    -0.38290
N1091       N  0.84361212  0.42709482  0.80524286    -0.37730
N1092       N  0.82693960  0.23018267  0.83798787    -0.37740
C1093       C  0.34460533  0.47926740  0.84743067    -0.04400
C1094       C  0.34645493  0.48586936  0.80385879    -0.01520
C1095       C  0.31701111  0.48647651  0.78307992     0.03470
C1096       C  0.28293718  0.47482059  0.80423404    -0.04400
C1097       C  0.28094311  0.46631049  0.84780365    -0.01510
C1098       C  0.31246991  0.47155443  0.86948275     0.03470
C1099       C  0.37970903  0.49442868  0.78082411     0.38120
C1100       C  0.24675775  0.45133895  0.87123775     0.38110
C1101       C  0.31192316  0.47015135  0.91486090     0.36530
C1102       C  0.32337409  0.50179244  0.74094513     0.36530
N1103       N  0.31108191  0.47028111  0.95107566    -0.38290
N1104       N  0.32908205  0.51437607  0.70749404    -0.38290
N1105       N  0.22033133  0.43971329  0.89147692    -0.37730
N1106       N  0.40619536  0.50121774  0.76247093    -0.37740
C1107       C  0.16750898  0.48353574  0.80165221    -0.04400
C1108       C  0.14595230  0.45650642  0.83190953    -0.01520
C1109       C  0.11826728  0.45886360  0.85417357     0.03470
C1110       C  0.11038717  0.48691347  0.84460363    -0.04400
C1111       C  0.12931917  0.51172784  0.81148654    -0.01510
C1112       C  0.15874262  0.51091995  0.79105181     0.03470
C1113       C  0.15001930  0.42450847  0.83759829     0.38120
C1114       C  0.11674493  0.53617516  0.79644687     0.38110
C1115       C  0.17945627  0.53774982  0.75859759     0.36530
C1116       C  0.09680602  0.43146984  0.88579557     0.36530
N1117       N  0.19591850  0.55904881  0.73257178    -0.38290
N1118       N  0.07948336  0.40935679  0.91067890    -0.38290
N1119       N  0.10631873  0.55523927  0.78400331    -0.37730
N1120       N  0.15246610  0.39848181  0.84156034    -0.37740
C1121       C  0.28158740  0.46823983  0.58065644    -0.04400
C1122       C  0.31589243  0.50070423  0.58420831    -0.01520
C1123       C  0.34729100  0.50353244  0.56457487     0.03470
C1124       C  0.34447822  0.47404085  0.54091058    -0.04400
C1125       C  0.31024666  0.44124959  0.53810842    -0.01510
C1126       C  0.27878659  0.43859269  0.55743559     0.03470
C1127       C  0.31867969  0.53153837  0.60730070     0.38120
C1128       C  0.30687104  0.41093521  0.01337039     0.38110
C1129       C  0.24340620  0.40545720  0.55313121     0.36530
C1130       C  0.38275335  0.53630395  0.57012807     0.36530
N1131       N  0.21512790  0.37913798  0.54949145    -0.38290
N1132       N  0.41098758  0.56236727  0.57512220    -0.38290
N1133       N  0.30402489  0.38688172  0.99331112    -0.37730
N1134       N  0.32083577  0.55612522  0.62565444    -0.37740
C1135       C  0.10835031  0.47756435  0.53435056    -0.04400
C1136       C  0.13753235  0.50760448  0.55509426    -0.01520
C1137       C  0.16471066  0.50322593  0.57604443     0.03470
C1138       C  0.16315041  0.46898842  0.57607886    -0.04400
C1139       C  0.13441750  0.43912477  0.55516276    -0.01510
C1140       C  0.10680453  0.44318010  0.53483810     0.03470
C1141       C  0.13869977  0.54257662  0.55691419     0.38120
C1142       C  0.13303333  0.40401682  0.55518768     0.38110
C1143       C  0.07681056  0.41168974  0.01469348     0.36530
C1144       C  0.19417374  0.53387615  0.59806328     0.36530
N1145       N  0.05292694  0.38610559  0.99922864    -0.38290
N1146       N  0.21763433  0.55823050  0.61574046    -0.38290
N1147       N  0.13201668  0.37606168  0.55518543    -0.37730
N1148       N  0.13978000  0.57051621  0.55871525    -0.37740
C1149       C  0.10846430  0.63063355  0.53885779    -0.04400
C1150       C  0.14458204  0.65024838  0.52167817    -0.01520
C1151       C  0.17327254  0.67960108  0.54358106     0.03470
C1152       C  0.16582712  0.69296334  0.58071712    -0.04400
C1153       C  0.12940799  0.67497901  0.59669825    -0.01510
C1154       C  0.10154793  0.64307535  0.57732295     0.03470
C1155       C  0.15283932  0.64156561  0.98064176     0.38120
C1156       C  0.12003346  0.68960311  0.63282573     0.38110
C1157       C  0.06623955  0.62285485  0.59846444     0.36530
C1158       C  0.21074016  0.69518624  0.02803178     0.36530
N1159       N  0.03845780  0.60721040  0.61617084    -0.38290
N1160       N  0.24044513  0.70748585  0.01526870    -0.38290
N1161       N  0.11249893  0.70111806  0.66166097    -0.37730
N1162       N  0.16033577  0.63549808  0.94793053    -0.37740
C1163       C  0.34360432  0.86928865  0.53249663    -0.04400
C1164       C  0.31360013  0.87463706  0.54265589    -0.01520
C1165       C  0.28286295  0.84749809  0.56504456     0.03470
C1166       C  0.28135633  0.81460117  0.57690138    -0.04400
C1167       C  0.31031722  0.80843446  0.56578588    -0.01510
C1168       C  0.34114610  0.83537848  0.54347493     0.03470
C1169       C  0.31307692  0.90721422  0.52877531     0.38120
C1170       C  0.30857325  0.77431183  0.57803957     0.38110
C1171       C  0.37023544  0.82779043  0.53250675     0.36530
C1172       C  0.25267558  0.85337812  0.57611484     0.36530
N1173       N  0.39293125  0.82109482  0.52347744    -0.38290
N1174       N  0.22859684  0.85803617  0.58501640    -0.38290
N1175       N  0.30714550  0.74713834  0.58792153    -0.37730
N1176       N  0.31160177  0.93270617  0.51789185    -0.37740
C1177       C  0.11290544  0.63241509  0.85068901    -0.04400
C1178       C  0.10842106  0.66183442  0.83568916    -0.01520
C1179       C  0.13725885  0.69168125  0.81389803     0.03470
C1180       C  0.17095762  0.69283122  0.80708499    -0.04400
C1181       C  0.17602669  0.66425744  0.82237000    -0.01510
C1182       C  0.14746553  0.63437534  0.84429613     0.03470
C1183       C  0.07489526  0.66272674  0.84392132     0.38120
C1184       C  0.21067512  0.66532378  0.81468903     0.38110
C1185       C  0.15447153  0.60602390  0.86003415     0.36530
C1186       C  0.13253746  0.72171420  0.79892881     0.36530
N1187       N  0.16103461  0.58420444  0.87304548    -0.38290
N1188       N  0.12886812  0.74569607  0.78696112    -0.38290
N1189       N  0.23827417  0.66620257  0.80847348    -0.37730
N1190       N  0.04850174  0.66419098  0.85015181    -0.37740
C1191       C  0.29189258  0.80988195  0.80604296    -0.04400
C1192       C  0.28568126  0.82927143  0.83821980    -0.01520
C1193       C  0.31564645  0.85804126  0.85923792     0.03470
C1194       C  0.35192956  0.86841271  0.84747379    -0.04400
C1195       C  0.35834952  0.84926116  0.81559079    -0.01510
C1196       C  0.32849963  0.81977506  0.79531991     0.03470
C1197       C  0.24854186  0.82032969  0.84924927     0.38120
C1198       C  0.39580376  0.86022735  0.80334767     0.38110
C1199       C  0.33563794  0.79918715  0.76407635     0.36530
C1200       C  0.30923691  0.87657408  0.89364572     0.36530
N1201       N  0.34135905  0.78288083  0.73904109    -0.38290
N1202       N  0.30424544  0.89124267  0.92128171    -0.38290
N1203       N  0.42565605  0.86910102  0.79344151    -0.37730
N1204       N  0.21893734  0.81312992  0.85821990    -0.37740
C1205       C  0.50078793  0.69211920  0.80809868    -0.04400
C1206       C  0.53010441  0.69486183  0.83243367    -0.01520
C1207       C  0.52579268  0.66420992  0.85548151     0.03470
C1208       C  0.49211022  0.63064320  0.85424379    -0.04400
C1209       C  0.46232022  0.62852015  0.83135412    -0.01510
C1210       C  0.46671522  0.65903766  0.80815237     0.03470
C1211       C  0.56480958  0.72906776  0.83329718     0.38120
C1212       C  0.42714320  0.59487276  0.83109387     0.38110
C1213       C  0.43590361  0.65651150  0.78459507     0.36530
C1214       C  0.55561921  0.66762972  0.88167733     0.36530
N1215       N  0.41143569  0.65455856  0.76570665    -0.38290
N1216       N  0.57935086  0.67054724  0.90281946    -0.38290
N1217       N  0.39875700  0.56839217  0.83099581    -0.37730
N1218       N  0.59247816  0.75638643  0.83402400    -0.37740
C1219       C  0.49789645  0.80921289  0.80670114    -0.04400
C1220       C  0.47695902  0.80246420  0.84387047    -0.01520
C1221       C  0.47807159  0.83174898  0.86635845     0.03470
C1222       C  0.49683436  0.86807673  0.84964604    -0.04400
C1223       C  0.51662892  0.87436667  0.81133371    -0.01510
C1224       C  0.51863735  0.84560210  0.79142909     0.03470
C1225       C  0.45319362  0.76516431  0.85871887     0.38120
C1226       C  0.53441886  0.91000459  0.79081479     0.38110
C1227       C  0.54298809  0.85394244  0.75548658     0.36530
C1228       C  0.46057567  0.82389798  0.90741866     0.36530
N1229       N  0.56237452  0.86068684  0.72686075    -0.38290
N1230       N  0.44669720  0.81727109  0.94017991    -0.38290
N1231       N  0.54884310  0.93794312  0.77339077    -0.37730
N1232       N  0.43430071  0.73548166  0.87066475    -0.37740
C1233       C  0.48983404  0.62789491  0.53547432    -0.04400
C1234       C  0.46658751  0.64191182  0.52266567    -0.01520
C1235       C  0.46521714  0.66969237  0.54583564     0.03470
C1236       C  0.48946145  0.68668829  0.57966348    -0.04400
C1237       C  0.51457057  0.67486629  0.59061199    -0.01510
C1238       C  0.51387555  0.64497402  0.56999121     0.03470
C1239       C  0.44450987  0.62898141  0.98486542     0.38120
C1240       C  0.54211847  0.69411206  0.62269210     0.38110
C1241       C  0.53808183  0.63216401  0.58545242     0.36530
C1242       C  0.43795255  0.68005612  0.53527574     0.36530
N1243       N  0.55761496  0.62242604  0.59825625    -0.38290
N1244       N  0.41620885  0.68828240  0.02677421    -0.38290
N1245       N  0.56405173  0.70938543  0.64823021    -0.37730
N1246       N  0.42699675  0.61904554  0.95466106    -0.37740
C1247       C  0.49566089  0.86891866  0.53937172    -0.04400
C1248       C  0.47444837  0.85327858  0.57581732    -0.01520
C1249       C  0.47464320  0.82348169  0.59590866     0.03470
C1250       C  0.49835009  0.81080427  0.58149799    -0.04400
C1251       C  0.52096167  0.82792929  0.54588616    -0.01510
C1252       C  0.51876673  0.85616328  0.52426030     0.03470
C1253       C  0.45257337  0.86814817  0.59284151     0.38120
C1254       C  0.54728903  0.81742088  0.53202025     0.38110
C1255       C  0.54022936  0.87215444  0.98633296     0.36530
C1256       C  0.44933879  0.80526272  0.63056330     0.36530
N1257       N  0.55712664  0.88484388  0.95594298    -0.38290
N1258       N  0.42917068  0.79085637  0.65821593    -0.38290
N1259       N  0.56828491  0.80905557  0.02085855    -0.37730
N1260       N  0.43533591  0.88018901  0.60647234    -0.37740
loop_ 
_geom_bond_atom_site_label_1 
_geom_bond_atom_site_label_2 
_geom_bond_distance 
_geom_bond_site_symmetry_2 
_ccdc_geom_bond_type 
C1            C2   1.407       .  A
C1            C6   1.404       .  A
C1          C606   1.501       .  S
C2            C3   1.411       .  A
C2            H7   1.080       .  S
C3            C4   1.410       .  A
C3           C12   1.504       .  S
C4            C5   1.403       .  A
C4            H8   1.080       .  S
C5            C6   1.403       .  A
C5          C620   1.499       .  S
C6            H9   1.082       .  S
C10          C11   1.401       .  A
C10          C15   1.397       .  A
C10         C575   1.484       .  S
C11          C12   1.410       .  A
C11          H16   1.080       .  S
C12          C13   1.412       .  A
C13          C14   1.407       .  A
C13          H17   1.081       .  S
C14          C15   1.402       .  A
C14         C589   1.500       .  S
C15          H18   1.083       .  S
C19          C20   1.406       .  A
C19          C24   1.400       .  A
C19         C561   1.495       .  S
C20          C21   1.415       .  A
C20          H25   1.076       .  S
C21          C22   1.414       .  A
C21          C30   1.512       .  S
C22          C23   1.400       .  A
C22          H26   1.079       .  S
C23          C24   1.397       .  A
C23         C550   1.484       .  S
C24          H27   1.084       .  S
C28          C29   1.399       .  A
C28          C33   1.396       .  A
C28         C536   1.483       .  S
C29          C30   1.413       .  A
C29          H34   1.077       .  S
C30          C31   1.415       .  A
C31          C32   1.407       .  A
C31          H35   1.078       .  S
C32          C33   1.403       .  A
C32         C522   1.503       .  S
C33          H36   1.083       .  S
C37          C38   1.395       .  A
C37          C42   1.400       .  A
C37         C508   1.481       .  S
C38          C39   1.397       .  A
C38          H43   1.084       .  S
C39          C40   1.401       .  A
C39         C491   1.482       .  S
C40          C41   1.414       .  A
C40          H44   1.078       .  S
C41          C42   1.414       .  A
C41          C48   1.510       .  S
C42          H45   1.077       .  S
C46          C47   1.396       .  A
C46          C51   1.399       .  A
C46         C477   1.487       .  S
C47          C48   1.410       .  A
C47          H52   1.077       .  S
C48          C49   1.414       .  A
C49          C50   1.411       .  A
C49          H53   1.078       .  S
C50          C51   1.408       .  A
C50         C466   1.513       .  S
C51          H54   1.081       .  S
C55          C56   1.401       .  A
C55          C60   1.394       .  A
C55         C449   1.486       .  S
C56          C57   1.418       .  A
C56          H61   1.075       .  S
C57          C58   1.417       .  A
C57          C66   1.518       .  S
C58          C59   1.404       .  A
C58          H62   1.076       .  S
C59          C60   1.395       .  A
C59         C435   1.486       .  S
C60          H63   1.084       .  S
C64          C65   1.401       .  A
C64          C69   1.396       .  A
C64         C421   1.485       .  S
C65          C66   1.416       .  A
C65          H70   1.076       .  S
C66          C67   1.417       .  A
C67          C68   1.403       .  A
C67          H71   1.077       .  S
C68          C69   1.396       .  A
C68         C410   1.483       .  S
C69          H72   1.084       .  S
C73          C74   1.407       .  A
C73          C78   1.406       .  A
C73         C382   1.504       .  S
C74          C75   1.402       .  A
C74          H79   1.082       .  S
C75          C76   1.400       .  A
C75         C393   1.495       .  S
C76          C77   1.408       .  A
C76          H80   1.078       .  S
C77          C78   1.411       .  A
C77          C84   1.504       .  S
C78          H81   1.080       .  S
C82          C83   1.398       .  A
C82          C87   1.398       .  A
C82         C351   1.481       .  S
C83          C84   1.409       .  A
C83          H88   1.080       .  S
C84          C85   1.412       .  A
C85          C86   1.405       .  A
C85          H89   1.077       .  S
C86          C87   1.402       .  A
C86         C365   1.496       .  S
C87          H90   1.084       .  S
C91          C92   1.398       .  A
C91          C96   1.403       .  A
C91         C340   1.490       .  S
C92          C93   1.403       .  A
C92          H97   1.083       .  S
C93          C94   1.409       .  A
C93         C323   1.502       .  S
C94          C95   1.415       .  A
C94          H98   1.078       .  S
C95          C96   1.414       .  A
C95         C102   1.515       .  S
C96          H99   1.078       .  S
C100        C101   1.406       .  A
C100        C105   1.397       .  A
C100        C312   1.493       .  S
C101        C102   1.417       .  A
C101        H106   1.078       .  S
C102        C103   1.417       .  A
C103        C104   1.404       .  A
C103        H107   1.078       .  S
C104        C105   1.394       .  A
C104        C295   1.486       .  S
C105        H108   1.084       .  S
O109        C111   1.289       .  A
O109       Zr751   2.452       .  S
O110        C741   1.284       .  A
O110       Zr147   2.416       .  S
C111        C603   1.515       .  S
C111        O740   1.284   1_554  A
O112        C114   1.288       .  A
O112       Zr124   2.445       .  S
O113        C114   1.288       .  A
O113       Zr148   2.429       .  S
C114        C354   1.491       .  S
O115        C117   1.286       .  A
O115       Zr124   2.432       .  S
O116        C117   1.288       .  A
O116       Zr147   2.430       .  S
C117        C578   1.483       .  S
O118        C120   1.286       .  A
O118       Zr751   2.433       .  S
O119        C750   1.289       .  A
O119       Zr148   2.439       .  S
C120        C379   1.480       .  S
C120        O749   1.289   1_554  A
Zr121       O739   2.452       .  S
Zr121       O748   2.433       .  S
Zr121       O122   2.433       .  S
Zr121       O753   2.436       .  S
Zr121       O127   2.364       .  S
Zr121       O128   2.376       .  S
Zr121       O781   2.375       .  S
Zr121       O783   2.365       .  S
O122        H165   0.990       .  S
O123       Zr751   2.436       .  S
O123        H164   0.990       .  S
O123        H168   0.990       .  S
Zr124       O125   2.428       .  S
Zr124       O126   2.436       .  S
Zr124       O128   2.370       .  S
Zr124       O127   2.370       .  S
Zr124       O152   2.370       .  S
Zr124       O154   2.372       .  S
O125        H166   0.989       .  S
O125        H169   0.990       .  S
O126        H159   0.990       .  S
O127       Zr147   2.376       .  S
O128       Zr148   2.387       .  S
O128        H155   0.966       .  S
O129        C131   1.288       .  A
O129       Zr771   2.443       .  S
O130        C761   1.288       .  A
O130       Zr148   2.432       .  S
C131        C298   1.485       .  S
C131        O760   1.288   1_554  A
O132        C134   1.289       .  A
O132       Zr144   2.448       .  S
O133        C134   1.286       .  A
O133       Zr147   2.422       .  S
C134        C463   1.484       .  S
O135        C137   1.288       .  A
O135       Zr144   2.445       .  S
O136        C137   1.289       .  A
O136       Zr148   2.438       .  S
C137        C326   1.518       .  S
O138        C140   1.286       .  A
O138       Zr771   2.436       .  S
O139        C770   1.287       .  A
O139       Zr147   2.426       .  S
C140        C494   1.481       .  S
C140        O769   1.287   1_554  A
Zr141       O759   2.443       .  S
Zr141       O768   2.436       .  S
Zr141       O142   2.434       .  S
Zr141       O773   2.435       .  S
Zr141       O149   2.365       .  S
Zr141       O150   2.376       .  S
Zr141       O783   2.371       .  S
Zr141       O781   2.373       .  S
O142        H162   0.989       .  S
O142        H797   0.990       .  S
O143       Zr771   2.435       .  S
O143        H163   0.990       .  S
Zr144       O145   2.433       .  S
Zr144       O146   2.435       .  S
Zr144       O150   2.374       .  S
Zr144       O149   2.371       .  S
Zr144       O154   2.374       .  S
Zr144       O152   2.368       .  S
O145        H161   0.990       .  S
O146        H160   0.990       .  S
O146        H170   0.990       .  S
Zr147       O150   2.380       .  S
Zr147       O152   2.383       .  S
Zr147       O783   2.381       .  S
Zr148       O149   2.388       .  S
Zr148       O154   2.383       .  S
Zr148       O781   2.384       .  S
O149        H157   0.965       .  S
O151       Zr751   2.375       .  S
O151       Zr771   2.373       .  S
O151       Zr778   2.384   1_554  S
O152        H156   0.966       .  S
O153       Zr751   2.365       .  S
O153       Zr771   2.371       .  S
O153       Zr777   2.381   1_554  S
O153        H158   0.966       .  S
H167        O772   0.990       .  S
O171        C173   1.291       .  A
O171       Zr183   2.457   1_455  S
O172        C173   1.285       .  A
O172       Zr209   2.417       .  S
C173        C547   1.504       .  S
O174        C176   1.290       .  A
O174       Zr816   2.454       .  S
O175        C806   1.285       .  A
O175       Zr210   2.418       .  S
C176        C396   1.518       .  S
C176        O805   1.285   1_554  A
O177        C179   1.289       .  A
O177       Zr816   2.449   1_455  S
O178        C809   1.288       .  A
O178       Zr209   2.429       .  S
C179        C519   1.510       .  S
C179        O808   1.288   1_554  A
O180        C182   1.286       .  A
O180       Zr183   2.437       .  S
O181        C182   1.288       .  A
O181       Zr210   2.433       .  S
C182        C368   1.520       .  S
Zr183       O184   2.432       .  S
Zr183       O185   2.436       .  S
Zr183       O189   2.368   1_655  S
Zr183       O190   2.374       .  S
Zr183       O213   2.375       .  S
Zr183       O215   2.365   1_655  S
O184        H227   0.990       .  S
O185        H226   0.990   1_655  S
O185        H230   0.990   1_655  S
Zr186       O804   2.454       .  S
Zr186       O807   2.449   1_655  S
Zr186       O187   2.436       .  S
Zr186       O818   2.433       .  S
Zr186       O190   2.367       .  S
Zr186       O189   2.373   1_655  S
Zr186       O844   2.375   1_655  S
Zr186       O846   2.370       .  S
O187        H228   0.990       .  S
O187        H861   0.990       .  S
O188       Zr816   2.433       .  S
O188        H221   0.990   1_655  S
O189       Zr209   2.379       .  S
O190       Zr210   2.385       .  S
O190        H217   0.966       .  S
O191        C193   1.287       .  A
O191       Zr203   2.441       .  S
O192        C193   1.287       .  A
O192       Zr210   2.425       .  S
C193        C452   1.481       .  S
O194        C196   1.287       .  A
O194       Zr836   2.436   1_455  S
O195        C826   1.287       .  A
O195       Zr209   2.426       .  S
C196        C505   1.487       .  S
C196        O825   1.287   1_554  A
O197        C199   1.285       .  A
O197       Zr836   2.429       .  S
O198        C829   1.289       .  A
O198       Zr210   2.440       .  S
C199        C424   1.482       .  S
C199        O828   1.289   1_554  A
O200        C202   1.285       .  A
O200       Zr203   2.431   1_455  S
O201        C202   1.288       .  A
O201       Zr209   2.433       .  S
C202        C480   1.476       .  S
Zr203       O204   2.434       .  S
Zr203       O205   2.434       .  S
Zr203       O211   2.369       .  S
Zr203       O212   2.375   1_655  S
Zr203       O215   2.370   1_655  S
Zr203       O213   2.370       .  S
O204        H224   0.989       .  S
O204        H229   0.990       .  S
O205        H225   0.990       .  S
Zr206       O824   2.436   1_655  S
Zr206       O827   2.429       .  S
Zr206       O207   2.431       .  S
Zr206       O838   2.434       .  S
Zr206       O212   2.370   1_655  S
Zr206       O211   2.374       .  S
Zr206       O846   2.369       .  S
Zr206       O844   2.366   1_655  S
O207        H223   0.990       .  S
O208       Zr836   2.434       .  S
O208        H222   0.990       .  S
O208        H232   0.990       .  S
Zr209       O212   2.380       .  S
Zr209       O215   2.383       .  S
Zr209       O844   2.382       .  S
Zr210       O211   2.385       .  S
Zr210       O213   2.382       .  S
Zr210       O846   2.380       .  S
O211        H219   0.966       .  S
O214       Zr816   2.375   1_455  S
O214       Zr836   2.366   1_455  S
O214       Zr839   2.382   1_554  S
O214        H218   0.966       .  S
O215        H220   0.966       .  S
O216       Zr816   2.370       .  S
O216       Zr836   2.369       .  S
O216       Zr840   2.380   1_554  S
H231        O817   0.990       .  S
O233        C235   1.290       .  A
O233       Zr245   2.452       .  S
O234        C235   1.286       .  A
O234       Zr271   2.419       .  S
C235        C592   1.509       .  S
O236        C238   1.290       .  A
O236       Zr878   2.449   1_545  S
O237        C868   1.290       .  A
O237       Zr272   2.436       .  S
C238        C407   1.496       .  S
C238        O867   1.290   1_554  A
O239        C241   1.286       .  A
O239       Zr878   2.438       .  S
O240        C871   1.285       .  A
O240       Zr271   2.423       .  S
C241        C617   1.475       .  S
C241        O870   1.285   1_554  A
O242        C244   1.290       .  A
O242       Zr245   2.451   1_545  S
O243        C244   1.286       .  A
O243       Zr272   2.422       .  S
C244        C438   1.513       .  S
Zr245       O246   2.431       .  S
Zr245       O247   2.433       .  S
Zr245       O251   2.371       .  S
Zr245       O252   2.371   1_565  S
Zr245       O275   2.372   1_565  S
Zr245       O277   2.370       .  S
O246        H289   0.990       .  S
O247        H288   0.990       .  S
O247        H292   0.990   1_565  S
Zr248       O866   2.449   1_565  S
Zr248       O869   2.438       .  S
Zr248       O249   2.431       .  S
Zr248       O880   2.434       .  S
Zr248       O252   2.368   1_565  S
Zr248       O251   2.369       .  S
Zr248       O906   2.374       .  S
Zr248       O908   2.376   1_565  S
O249        H290   0.989   1_565  S
O249        H923   0.990       .  S
O250       Zr878   2.434       .  S
O250        H283   0.990       .  S
O251       Zr271   2.374       .  S
O252       Zr272   2.384       .  S
O252        H279   0.966       .  S
O253        C255   1.287       .  A
O253       Zr265   2.441   1_545  S
O254        C255   1.290       .  A
O254       Zr272   2.440       .  S
C255        C337   1.486       .  S
O256        C258   1.288       .  A
O256       Zr898   2.441       .  S
O257        C888   1.288       .  A
O257       Zr271   2.429       .  S
C258        C533   1.500       .  S
C258        O887   1.288   1_554  A
O259        C261   1.286       .  A
O259       Zr898   2.438   1_545  S
O260        C891   1.287       .  A
O260       Zr272   2.430       .  S
C261        C309   1.517       .  S
C261        O890   1.287   1_554  A
O262        C264   1.289       .  A
O262       Zr265   2.452       .  S
O263        C264   1.283       .  A
O263       Zr271   2.407       .  S
C264        C564   1.475       .  S
Zr265       O266   2.435       .  S
Zr265       O267   2.435       .  S
Zr265       O273   2.372   1_565  S
Zr265       O274   2.370       .  S
Zr265       O277   2.364       .  S
Zr265       O275   2.378   1_565  S
O266        H286   0.989   1_565  S
O266        H291   0.990   1_565  S
O267        H287   0.990   1_565  S
Zr268       O886   2.441       .  S
Zr268       O889   2.438   1_565  S
Zr268       O269   2.429       .  S
Zr268       O900   2.434       .  S
Zr268       O274   2.371       .  S
Zr268       O273   2.364   1_565  S
Zr268       O908   2.373   1_565  S
Zr268       O906   2.370       .  S
O269        H285   0.990       .  S
O270       Zr898   2.434       .  S
O270        H284   0.990   1_565  S
O270        H294   0.990       .  S
Zr271       O274   2.375       .  S
Zr271       O277   2.381       .  S
Zr271       O906   2.382       .  S
Zr272       O273   2.384       .  S
Zr272       O275   2.383       .  S
Zr272       O908   2.382       .  S
O273        H281   0.966       .  S
O276       Zr878   2.374       .  S
O276       Zr898   2.370       .  S
O276       Zr901   2.382   1_554  S
O276        H280   0.966       .  S
O277        H282   0.966       .  S
O278       Zr878   2.376   1_545  S
O278       Zr898   2.373   1_545  S
O278       Zr902   2.382   1_554  S
H293        O879   0.990       .  S
C295        C296   1.412       .  A
C295        C300   1.411       .  A
C296        C297   1.409       .  A
C296        C301   1.452       .  S
C297        C298   1.411       .  A
C297        C304   1.447       .  S
C298        C299   1.415       .  A
C299        C300   1.412       .  A
C299        C932   1.451   1_554  S
C300        C303   1.451       .  S
C301        N308   1.157       .  T
C302        C929   1.451       .  S
C302        N307   1.157       .  T
C303        N305   1.157       .  T
C304        N306   1.156       .  T
C309        C310   1.427       .  A
C309        C314   1.430       .  A
C310        C311   1.412       .  A
C310        C315   1.452   1_554  S
C311        C312   1.410       .  A
C311        C318   1.453       .  S
C312        C313   1.409       .  A
C313        C314   1.412       .  A
C313        C316   1.454       .  S
C314        C317   1.452       .  S
C315        N952   1.157       .  T
C316        N321   1.157       .  T
C317        N319   1.158       .  T
C318        N320   1.157       .  T
N322        C945   1.157       .  T
C323        C324   1.413       .  A
C323        C328   1.413       .  A
C324        C325   1.413       .  A
C324        C329   1.454       .  S
C325        C326   1.428       .  A
C325        C332   1.452       .  S
C326        C327   1.427       .  A
C327        C328   1.415       .  A
C327        C330   1.452       .  S
C328        C331   1.452       .  S
C329        N336   1.158       .  T
C330        N335   1.158       .  T
C331        N333   1.157       .  T
C332        N334   1.157       .  T
C337        C338   1.416       .  A
C337        C342   1.411       .  A
C338        C339   1.413       .  A
C338        C343   1.451       .  S
C339        C340   1.411       .  A
C339        C346   1.450       .  S
C340        C341   1.414       .  A
C341        C342   1.410       .  A
C341        C344   1.452       .  S
C342        C345   1.450       .  S
C343        N350   1.157       .  T
C344        N349   1.157       .  T
C345        N347   1.157       .  T
C346        N348   1.157       .  T
C351        C352   1.407       .  A
C351        C356   1.409       .  A
C352        C353   1.411       .  A
C352        C357   1.452       .  S
C353        C354   1.419       .  A
C353        C360   1.449       .  S
C354        C355   1.416       .  A
C355        C356   1.409       .  A
C355        C358   1.450       .  S
C356        C359   1.452       .  S
C357        N364   1.157       .  T
C358        N363   1.156       .  T
C359        N361   1.157       .  T
C360        N362   1.157       .  T
C365        C366   1.410       .  A
C365        C370   1.412       .  A
C366        C367   1.412       .  A
C366        C371   1.454       .  S
C367        C368   1.430       .  A
C367        C374   1.452       .  S
C368        C369   1.428       .  A
C369        C370   1.413       .  A
C369        C372   1.450       .  S
C370        C373   1.454       .  S
C371        N378   1.157       .  T
C372        N377   1.157       .  T
C373        N375   1.157       .  T
C374        N376   1.158       .  T
C379        C380   1.408       .  A
C379        C384   1.407       .  A
C380        C381   1.411       .  A
C380       C1015   1.446   1_554  S
C381        C382   1.418       .  A
C381        C388   1.451       .  S
C382        C383   1.424       .  A
C383        C384   1.410       .  A
C383        C386   1.452       .  S
C384        C387   1.453       .  S
C385       C1010   1.446       .  S
C385        N392   1.155       .  T
C386        N391   1.158       .  T
C387        N389   1.157       .  T
C388       N1020   1.157       .  T
N390       C1018   1.157       .  T
C393        C394   1.407       .  A
C393        C398   1.413       .  A
C394        C395   1.415       .  A
C394        C399   1.453       .  S
C395        C396   1.431       .  A
C395       C1032   1.451       .  S
C396        C397   1.427       .  A
C397        C398   1.411       .  A
C397        C400   1.453       .  S
C398        C401   1.455       .  S
C399       N1036   1.157       .  T
C400        N405   1.158       .  T
C401        N403   1.157       .  T
C402       C1025   1.451       .  S
C402        N404   1.157       .  T
N406       C1029   1.157       .  T
C407        C408   1.420       .  A
C407        C412   1.417       .  A
C408        C409   1.413       .  A
C408        C413   1.449       .  S
C409        C410   1.408       .  A
C409        C416   1.452       .  S
C410        C411   1.407       .  A
C411        C412   1.410       .  A
C411        C414   1.452       .  S
C412        C415   1.447       .  S
C413        N420   1.157       .  T
C414        N419   1.157       .  T
C415        N417   1.156       .  T
C416        N418   1.157       .  T
C421        C422   1.413       .  A
C421        C426   1.410       .  A
C422        C423   1.409       .  A
C422        C427   1.452       .  S
C423        C424   1.410       .  A
C423        C430   1.449       .  S
C424        C425   1.414       .  A
C425        C426   1.411       .  A
C425        C428   1.449       .  S
C426        C429   1.451       .  S
C427        N434   1.157       .  T
C428       N1063   1.157   1_554  T
C429        N431   1.157       .  T
C430        N432   1.157       .  T
N433       C1058   1.157       .  T
C435        C436   1.408       .  A
C435        C440   1.406       .  A
C436        C437   1.410       .  A
C436        C441   1.454       .  S
C437        C438   1.428       .  A
C437        C444   1.452       .  S
C438        C439   1.428       .  A
C439        C440   1.412       .  A
C439        C442   1.450       .  S
C440        C443   1.453       .  S
C441        N448   1.157       .  T
C442        N447   1.157       .  T
C443        N445   1.157       .  T
C444        N446   1.157       .  T
C449        C450   1.411       .  A
C449        C454   1.413       .  A
C450        C451   1.409       .  A
C450        C455   1.452       .  S
C451        C452   1.413       .  A
C451        C458   1.449       .  S
C452        C453   1.412       .  A
C453        C454   1.410       .  A
C453        C456   1.450       .  S
C454        C457   1.451       .  S
C455        N462   1.157       .  T
C456        N461   1.157       .  T
C457        N459   1.157       .  T
C458        N460   1.156       .  T
C463        C464   1.408       .  A
C463        C468   1.406       .  A
C464        C465   1.413       .  A
C464        C469   1.453       .  S
C465        C466   1.426       .  A
C465        C472   1.451       .  S
C466        C467   1.423       .  A
C467        C468   1.409       .  A
C467        C470   1.450       .  S
C468        C471   1.446       .  S
C469        N476   1.157       .  T
C470        N475   1.157       .  T
C471        N473   1.154       .  T
C472        N474   1.157       .  T
C477        C478   1.414       .  A
C477        C482   1.414       .  A
C478        C479   1.407       .  A
C478        C483   1.451       .  S
C479        C480   1.408       .  A
C479        C486   1.450       .  S
C480        C481   1.411       .  A
C481        C482   1.412       .  A
C481        C484   1.451       .  S
C482        C485   1.450       .  S
C483        N490   1.157       .  T
C484        N489   1.157       .  T
C485        N487   1.157       .  T
C486        N488   1.156       .  T
C491        C492   1.411       .  A
C491        C496   1.411       .  A
C492        C493   1.409       .  A
C492        C497   1.451       .  S
C493        C494   1.412       .  A
C493        C500   1.451       .  S
C494        C495   1.414       .  A
C495        C496   1.409       .  A
C495       C1128   1.452       .  S
C496        C499   1.451       .  S
C497        N504   1.157       .  T
C498       C1125   1.452       .  S
C498        N503   1.157       .  T
C499        N501   1.157       .  T
C500        N502   1.157       .  T
C505        C506   1.415       .  A
C505        C510   1.417       .  A
C506        C507   1.410       .  A
C506        C511   1.451       .  S
C507        C508   1.411       .  A
C507        C514   1.452       .  S
C508        C509   1.407       .  A
C509        C510   1.410       .  A
C509        C512   1.451       .  S
C510       C1143   1.450       .  S
C511        N518   1.157       .  T
C512        N517   1.157       .  T
C513       C1140   1.450       .  S
C513        N515   1.157       .  T
C514        N516   1.157       .  T
C519        C520   1.422       .  A
C519        C524   1.422       .  A
C520        C521   1.412       .  A
C520       C1155   1.448   1_554  S
C521        C522   1.415       .  A
C521       C1158   1.453       .  S
C522        C523   1.417       .  A
C523        C524   1.414       .  A
C523        C526   1.454       .  S
C524        C527   1.451       .  S
C525       C1150   1.448       .  S
C525        N532   1.156       .  T
C526        N531   1.158       .  T
C527        N529   1.157       .  T
C528       C1151   1.453       .  S
C528        N530   1.157       .  T
C533        C534   1.423       .  A
C533        C538   1.421       .  A
C534        C535   1.412       .  A
C534        C539   1.449       .  S
C535        C536   1.404       .  A
C535        C542   1.451       .  S
C536        C537   1.410       .  A
C537        C538   1.410       .  A
C537        C540   1.453       .  S
C538        C541   1.451       .  S
C539        N546   1.157       .  T
C540        N545   1.157       .  T
C541        N543   1.157       .  T
C542        N544   1.157       .  T
C547        C548   1.423       .  A
C547        C552   1.426       .  A
C548        C549   1.412       .  A
C548        C553   1.450       .  S
C549        C550   1.408       .  A
C549        C556   1.452       .  S
C550        C551   1.407       .  A
C551        C552   1.410       .  A
C551        C554   1.453       .  S
C552        C555   1.451       .  S
C553        N560   1.157       .  T
C554        N559   1.157       .  T
C555        N557   1.157       .  T
C556        N558   1.157       .  T
C561        C562   1.419       .  A
C561        C566   1.417       .  A
C562        C563   1.410       .  A
C562        C567   1.451       .  S
C563        C564   1.408       .  A
C563        C570   1.452       .  S
C564        C565   1.409       .  A
C565        C566   1.410       .  A
C565        C568   1.452       .  S
C566        C569   1.451       .  S
C567        N574   1.157       .  T
C568        N573   1.157       .  T
C569        N571   1.157       .  T
C570        N572   1.157       .  T
C575        C576   1.410       .  A
C575        C580   1.413       .  A
C576        C577   1.411       .  A
C576        C581   1.450       .  S
C577        C578   1.416       .  A
C577        C584   1.451       .  S
C578        C579   1.411       .  A
C579        C580   1.408       .  A
C579        C582   1.449       .  S
C580        C583   1.453       .  S
C581        N588   1.157       .  T
C582        N587   1.156       .  T
C583        N585   1.157       .  T
C584        N586   1.157       .  T
C589        C590   1.415       .  A
C589        C594   1.414       .  A
C590        C591   1.412       .  A
C590        C595   1.453       .  S
C591        C592   1.425       .  A
C591        C598   1.453       .  S
C592        C593   1.423       .  A
C593        C594   1.412       .  A
C593        C596   1.451       .  S
C594        C597   1.454       .  S
C595        N602   1.158       .  T
C596        N601   1.157       .  T
C597        N599   1.158       .  T
C598        N600   1.158       .  T
C603        C604   1.428       .  A
C603        C608   1.426       .  A
C604        C605   1.414       .  A
C604       C1239   1.453   1_554  S
C605        C606   1.412       .  A
C605        C612   1.452       .  S
C606        C607   1.415       .  A
C607        C608   1.413       .  A
C607        C610   1.454       .  S
C608        C611   1.452       .  S
C609       C1234   1.453       .  S
C609        N616   1.158       .  T
C610        N615   1.157       .  T
C611        N613   1.157       .  T
C612       N1244   1.157       .  T
N614       C1242   1.157       .  T
C617        C618   1.406       .  A
C617        C622   1.409       .  A
C618        C619   1.408       .  A
C618        C623   1.452       .  S
C619        C620   1.422       .  A
C619        C626   1.452       .  S
C620        C621   1.418       .  A
C621        C622   1.412       .  A
C621        C624   1.451       .  S
C622       C1255   1.452   1_554  S
C623        N630   1.157       .  T
C624       N1259   1.157       .  T
C625       C1252   1.452       .  S
C625        N627   1.157       .  T
C626        N628   1.157       .  T
N629       C1254   1.157       .  T
C631        C632   1.407       .  A
C631        C636   1.404       .  A
C631       C1236   1.501       .  S
C632        C633   1.411       .  A
C632        H637   1.080       .  S
C633        C634   1.410       .  A
C633        C642   1.504       .  S
C634        C635   1.403       .  A
C634        H638   1.080       .  S
C635        C636   1.403       .  A
C635       C1250   1.499       .  S
C636        H639   1.082       .  S
C640        C641   1.401       .  A
C640        C645   1.397       .  A
C640       C1205   1.484       .  S
C641        C642   1.410       .  A
C641        H646   1.080       .  S
C642        C643   1.412       .  A
C643        C644   1.407       .  A
C643        H647   1.081       .  S
C644        C645   1.402       .  A
C644       C1219   1.500       .  S
C645        H648   1.083       .  S
C649        C650   1.406       .  A
C649        C654   1.400       .  A
C649       C1191   1.495       .  S
C650        C651   1.415       .  A
C650        H655   1.076       .  S
C651        C652   1.414       .  A
C651        C660   1.512       .  S
C652        C653   1.400       .  A
C652        H656   1.079       .  S
C653        C654   1.397       .  A
C653       C1180   1.484       .  S
C654        H657   1.084       .  S
C658        C659   1.399       .  A
C658        C663   1.396       .  A
C658       C1166   1.483       .  S
C659        C660   1.413       .  A
C659        H664   1.077       .  S
C660        C661   1.415       .  A
C661        C662   1.407       .  A
C661        H665   1.078       .  S
C662        C663   1.403       .  A
C662       C1152   1.503       .  S
C663        H666   1.083       .  S
C667        C668   1.395       .  A
C667        C672   1.400       .  A
C667       C1138   1.481       .  S
C668        C669   1.397       .  A
C668        H673   1.084       .  S
C669        C670   1.401       .  A
C669       C1121   1.482       .  S
C670        C671   1.414       .  A
C670        H674   1.078       .  S
C671        C672   1.414       .  A
C671        C678   1.510       .  S
C672        H675   1.077       .  S
C676        C677   1.396       .  A
C676        C681   1.399       .  A
C676       C1107   1.487       .  S
C677        C678   1.410       .  A
C677        H682   1.077       .  S
C678        C679   1.414       .  A
C679        C680   1.411       .  A
C679        H683   1.078       .  S
C680        C681   1.408       .  A
C680       C1096   1.513       .  S
C681        H684   1.081       .  S
C685        C686   1.401       .  A
C685        C690   1.394       .  A
C685       C1079   1.486       .  S
C686        C687   1.418       .  A
C686        H691   1.075       .  S
C687        C688   1.417       .  A
C687        C696   1.518       .  S
C688        C689   1.404       .  A
C688        H692   1.076       .  S
C689        C690   1.395       .  A
C689       C1065   1.486       .  S
C690        H693   1.084       .  S
C694        C695   1.401       .  A
C694        C699   1.396       .  A
C694       C1051   1.485       .  S
C695        C696   1.416       .  A
C695        H700   1.076       .  S
C696        C697   1.417       .  A
C697        C698   1.403       .  A
C697        H701   1.077       .  S
C698        C699   1.396       .  A
C698       C1040   1.483       .  S
C699        H702   1.084       .  S
C703        C704   1.407       .  A
C703        C708   1.406       .  A
C703       C1012   1.504       .  S
C704        C705   1.402       .  A
C704        H709   1.082       .  S
C705        C706   1.400       .  A
C705       C1023   1.495       .  S
C706        C707   1.408       .  A
C706        H710   1.078       .  S
C707        C708   1.411       .  A
C707        C714   1.504       .  S
C708        H711   1.080       .  S
C712        C713   1.398       .  A
C712        C717   1.398       .  A
C712        C981   1.481       .  S
C713        C714   1.409       .  A
C713        H718   1.080       .  S
C714        C715   1.412       .  A
C715        C716   1.405       .  A
C715        H719   1.077       .  S
C716        C717   1.402       .  A
C716        C995   1.496       .  S
C717        H720   1.084       .  S
C721        C722   1.398       .  A
C721        C726   1.403       .  A
C721        C970   1.490       .  S
C722        C723   1.403       .  A
C722        H727   1.083       .  S
C723        C724   1.409       .  A
C723        C953   1.502       .  S
C724        C725   1.415       .  A
C724        H728   1.078       .  S
C725        C726   1.414       .  A
C725        C732   1.515       .  S
C726        H729   1.078       .  S
C730        C731   1.406       .  A
C730        C735   1.397       .  A
C730        C942   1.493       .  S
C731        C732   1.417       .  A
C731        H736   1.078       .  S
C732        C733   1.417       .  A
C733        C734   1.404       .  A
C733        H737   1.078       .  S
C734        C735   1.394       .  A
C734        C925   1.486       .  S
C735        H738   1.084       .  S
O739        C741   1.289       .  A
O740       Zr777   2.416       .  S
C741       C1233   1.515       .  S
O742        C744   1.288       .  A
O742       Zr754   2.445       .  S
O743        C744   1.288       .  A
O743       Zr778   2.429       .  S
C744        C984   1.491       .  S
O745        C747   1.286       .  A
O745       Zr754   2.432       .  S
O746        C747   1.288       .  A
O746       Zr777   2.430       .  S
C747       C1208   1.483       .  S
O748        C750   1.286       .  A
O749       Zr778   2.439       .  S
C750       C1009   1.480       .  S
Zr751       O752   2.433       .  S
Zr751       O757   2.364   1_554  S
Zr751       O758   2.376   1_554  S
O752        H795   0.990   1_554  S
O753        H794   0.990       .  S
O753        H798   0.990       .  S
Zr754       O755   2.428       .  S
Zr754       O756   2.436       .  S
Zr754       O758   2.369       .  S
Zr754       O757   2.370       .  S
Zr754       O782   2.370       .  S
Zr754       O784   2.372       .  S
O755        H796   0.989       .  S
O755        H799   0.990       .  S
O756        H789   0.990       .  S
O757       Zr777   2.376       .  S
O758       Zr778   2.387       .  S
O758        H785   0.966       .  S
O759        C761   1.288       .  A
O760       Zr778   2.431       .  S
C761        C928   1.485       .  S
O762        C764   1.289       .  A
O762       Zr774   2.448       .  S
O763        C764   1.286       .  A
O763       Zr777   2.422       .  S
C764       C1093   1.484       .  S
O765        C767   1.288       .  A
O765       Zr774   2.445       .  S
O766        C767   1.289       .  A
O766       Zr778   2.438       .  S
C767        C956   1.518       .  S
O768        C770   1.286       .  A
O769       Zr777   2.426       .  S
C770       C1124   1.481       .  S
Zr771       O772   2.434       .  S
Zr771       O779   2.365   1_554  S
Zr771       O780   2.376   1_554  S
O772        H792   0.989   1_554  S
O773        H793   0.990       .  S
Zr774       O775   2.433       .  S
Zr774       O776   2.435       .  S
Zr774       O780   2.374       .  S
Zr774       O779   2.371       .  S
Zr774       O784   2.374       .  S
Zr774       O782   2.368       .  S
O775        H791   0.990       .  S
O776        H790   0.990       .  S
O776        H800   0.990       .  S
Zr777       O780   2.380       .  S
Zr777       O782   2.383       .  S
Zr778       O779   2.388       .  S
Zr778       O784   2.383       .  S
O779        H787   0.965       .  S
O782        H786   0.966       .  S
O783        H788   0.966       .  S
O801        C803   1.291       .  A
O801       Zr813   2.457   1_455  S
O802        C803   1.285       .  A
O802       Zr839   2.417       .  S
C803       C1177   1.504       .  S
O804        C806   1.290       .  A
O805       Zr840   2.418       .  S
C806       C1026   1.518       .  S
O807        C809   1.289       .  A
O808       Zr839   2.429       .  S
C809       C1149   1.510       .  S
O810        C812   1.286       .  A
O810       Zr813   2.437       .  S
O811        C812   1.288       .  A
O811       Zr840   2.433       .  S
C812        C998   1.520       .  S
Zr813       O814   2.432       .  S
Zr813       O815   2.436       .  S
Zr813       O819   2.368   1_655  S
Zr813       O820   2.374       .  S
Zr813       O843   2.375       .  S
Zr813       O845   2.365   1_655  S
O814        H857   0.990       .  S
O815        H856   0.990   1_655  S
O815        H860   0.990   1_655  S
Zr816       O817   2.436       .  S
Zr816       O820   2.367   1_554  S
Zr816       O819   2.373   1_654  S
O817        H858   0.990   1_554  S
O818        H851   0.990   1_655  S
O819       Zr839   2.379       .  S
O820       Zr840   2.385       .  S
O820        H847   0.966       .  S
O821        C823   1.287       .  A
O821       Zr833   2.441       .  S
O822        C823   1.287       .  A
O822       Zr840   2.425       .  S
C823       C1082   1.481       .  S
O824        C826   1.287       .  A
O825       Zr839   2.426       .  S
C826       C1135   1.487       .  S
O827        C829   1.285       .  A
O828       Zr840   2.440       .  S
C829       C1054   1.482       .  S
O830        C832   1.285       .  A
O830       Zr833   2.431   1_455  S
O831        C832   1.288       .  A
O831       Zr839   2.433       .  S
C832       C1110   1.476       .  S
Zr833       O834   2.434       .  S
Zr833       O835   2.434       .  S
Zr833       O841   2.369       .  S
Zr833       O842   2.375   1_655  S
Zr833       O845   2.370   1_655  S
Zr833       O843   2.370       .  S
O834        H854   0.989       .  S
O834        H859   0.990       .  S
O835        H855   0.990       .  S
Zr836       O837   2.431       .  S
Zr836       O842   2.370   1_654  S
Zr836       O841   2.374   1_554  S
O837        H853   0.990   1_554  S
O838        H852   0.990       .  S
O838        H862   0.990       .  S
Zr839       O842   2.380       .  S
Zr839       O845   2.383       .  S
Zr840       O841   2.385       .  S
Zr840       O843   2.382       .  S
O841        H849   0.966       .  S
O844        H848   0.966       .  S
O845        H850   0.966       .  S
O863        C865   1.290       .  A
O863       Zr875   2.452       .  S
O864        C865   1.286       .  A
O864       Zr901   2.419       .  S
C865       C1222   1.509       .  S
O866        C868   1.290       .  A
O867       Zr902   2.436       .  S
C868       C1037   1.496       .  S
O869        C871   1.286       .  A
O870       Zr901   2.423       .  S
C871       C1247   1.475       .  S
O872        C874   1.290       .  A
O872       Zr875   2.451   1_545  S
O873        C874   1.286       .  A
O873       Zr902   2.422       .  S
C874       C1068   1.513       .  S
Zr875       O876   2.431       .  S
Zr875       O877   2.433       .  S
Zr875       O881   2.371       .  S
Zr875       O882   2.371   1_565  S
Zr875       O905   2.372   1_565  S
Zr875       O907   2.370       .  S
O876        H919   0.990       .  S
O877        H918   0.990       .  S
O877        H922   0.990   1_565  S
Zr878       O879   2.431       .  S
Zr878       O882   2.368   1_564  S
Zr878       O881   2.369   1_554  S
O879        H920   0.989   1_564  S
O880        H913   0.990       .  S
O881       Zr901   2.374       .  S
O882       Zr902   2.384       .  S
O882        H909   0.966       .  S
O883        C885   1.287       .  A
O883       Zr895   2.441   1_545  S
O884        C885   1.290       .  A
O884       Zr902   2.440       .  S
C885        C967   1.486       .  S
O886        C888   1.288       .  A
O887       Zr901   2.429       .  S
C888       C1163   1.500       .  S
O889        C891   1.286       .  A
O890       Zr902   2.430       .  S
C891        C939   1.517       .  S
O892        C894   1.289       .  A
O892       Zr895   2.452       .  S
O893        C894   1.283       .  A
O893       Zr901   2.407       .  S
C894       C1194   1.475       .  S
Zr895       O896   2.435       .  S
Zr895       O897   2.435       .  S
Zr895       O903   2.372   1_565  S
Zr895       O904   2.370       .  S
Zr895       O907   2.364       .  S
Zr895       O905   2.378   1_565  S
O896        H916   0.989   1_565  S
O896        H921   0.990   1_565  S
O897        H917   0.990   1_565  S
Zr898       O899   2.429       .  S
Zr898       O904   2.371   1_554  S
Zr898       O903   2.364   1_564  S
O899        H915   0.990   1_554  S
O900        H914   0.990   1_565  S
O900        H924   0.990       .  S
Zr901       O904   2.375       .  S
Zr901       O907   2.381       .  S
Zr902       O903   2.384       .  S
Zr902       O905   2.383       .  S
O903        H911   0.966       .  S
O906        H910   0.966       .  S
O907        H912   0.966       .  S
C925        C926   1.412       .  A
C925        C930   1.411       .  A
C926        C927   1.409       .  A
C926        C931   1.452       .  S
C927        C928   1.411       .  A
C927        C934   1.447       .  S
C928        C929   1.415       .  A
C929        C930   1.412       .  A
C930        C933   1.451       .  S
C931        N938   1.157       .  T
C932        N937   1.157       .  T
C933        N935   1.157       .  T
C934        N936   1.156       .  T
C939        C940   1.427       .  A
C939        C944   1.430       .  A
C940        C941   1.412       .  A
C940        C945   1.452       .  S
C941        C942   1.410       .  A
C941        C948   1.453       .  S
C942        C943   1.409       .  A
C943        C944   1.412       .  A
C943        C946   1.454       .  S
C944        C947   1.452       .  S
C946        N951   1.157       .  T
C947        N949   1.158       .  T
C948        N950   1.157       .  T
C953        C954   1.413       .  A
C953        C958   1.413       .  A
C954        C955   1.413       .  A
C954        C959   1.454       .  S
C955        C956   1.428       .  A
C955        C962   1.452       .  S
C956        C957   1.427       .  A
C957        C958   1.415       .  A
C957        C960   1.452       .  S
C958        C961   1.452       .  S
C959        N966   1.158       .  T
C960        N965   1.158       .  T
C961        N963   1.157       .  T
C962        N964   1.157       .  T
C967        C968   1.416       .  A
C967        C972   1.411       .  A
C968        C969   1.413       .  A
C968        C973   1.451       .  S
C969        C970   1.411       .  A
C969        C976   1.450       .  S
C970        C971   1.414       .  A
C971        C972   1.410       .  A
C971        C974   1.452       .  S
C972        C975   1.450       .  S
C973        N980   1.157       .  T
C974        N979   1.157       .  T
C975        N977   1.157       .  T
C976        N978   1.157       .  T
C981        C982   1.407       .  A
C981        C986   1.409       .  A
C982        C983   1.411       .  A
C982        C987   1.452       .  S
C983        C984   1.419       .  A
C983        C990   1.449       .  S
C984        C985   1.416       .  A
C985        C986   1.409       .  A
C985        C988   1.450       .  S
C986        C989   1.452       .  S
C987        N994   1.157       .  T
C988        N993   1.156       .  T
C989        N991   1.157       .  T
C990        N992   1.157       .  T
C995        C996   1.410       .  A
C995       C1000   1.412       .  A
C996        C997   1.412       .  A
C996       C1001   1.454       .  S
C997        C998   1.430       .  A
C997       C1004   1.452       .  S
C998        C999   1.428       .  A
C999       C1000   1.413       .  A
C999       C1002   1.450       .  S
C1000      C1003   1.454       .  S
C1001      N1008   1.157       .  T
C1002      N1007   1.157       .  T
C1003      N1005   1.157       .  T
C1004      N1006   1.158       .  T
C1009      C1010   1.408       .  A
C1009      C1014   1.407       .  A
C1010      C1011   1.411       .  A
C1011      C1012   1.418       .  A
C1011      C1018   1.451       .  S
C1012      C1013   1.424       .  A
C1013      C1014   1.410       .  A
C1013      C1016   1.452       .  S
C1014      C1017   1.453       .  S
C1015      N1022   1.155       .  T
C1016      N1021   1.158       .  T
C1017      N1019   1.157       .  T
C1023      C1024   1.407       .  A
C1023      C1028   1.413       .  A
C1024      C1025   1.415       .  A
C1024      C1029   1.453       .  S
C1025      C1026   1.431       .  A
C1026      C1027   1.427       .  A
C1027      C1028   1.411       .  A
C1027      C1030   1.453       .  S
C1028      C1031   1.455       .  S
C1030      N1035   1.158       .  T
C1031      N1033   1.157       .  T
C1032      N1034   1.157   1_554  T
C1037      C1038   1.420       .  A
C1037      C1042   1.417       .  A
C1038      C1039   1.413       .  A
C1038      C1043   1.449       .  S
C1039      C1040   1.408       .  A
C1039      C1046   1.452       .  S
C1040      C1041   1.407       .  A
C1041      C1042   1.410       .  A
C1041      C1044   1.452       .  S
C1042      C1045   1.447       .  S
C1043      N1050   1.157       .  T
C1044      N1049   1.157       .  T
C1045      N1047   1.156       .  T
C1046      N1048   1.157       .  T
C1051      C1052   1.413       .  A
C1051      C1056   1.410       .  A
C1052      C1053   1.409       .  A
C1052      C1057   1.452       .  S
C1053      C1054   1.410       .  A
C1053      C1060   1.449       .  S
C1054      C1055   1.414       .  A
C1055      C1056   1.411       .  A
C1055      C1058   1.449       .  S
C1056      C1059   1.451       .  S
C1057      N1064   1.157       .  T
C1059      N1061   1.157       .  T
C1060      N1062   1.157       .  T
C1065      C1066   1.408       .  A
C1065      C1070   1.406       .  A
C1066      C1067   1.410       .  A
C1066      C1071   1.454       .  S
C1067      C1068   1.428       .  A
C1067      C1074   1.452       .  S
C1068      C1069   1.428       .  A
C1069      C1070   1.412       .  A
C1069      C1072   1.450       .  S
C1070      C1073   1.453       .  S
C1071      N1078   1.157       .  T
C1072      N1077   1.157       .  T
C1073      N1075   1.157       .  T
C1074      N1076   1.157       .  T
C1079      C1080   1.411       .  A
C1079      C1084   1.413       .  A
C1080      C1081   1.409       .  A
C1080      C1085   1.452       .  S
C1081      C1082   1.413       .  A
C1081      C1088   1.449       .  S
C1082      C1083   1.412       .  A
C1083      C1084   1.410       .  A
C1083      C1086   1.450       .  S
C1084      C1087   1.451       .  S
C1085      N1092   1.157       .  T
C1086      N1091   1.157       .  T
C1087      N1089   1.157       .  T
C1088      N1090   1.156       .  T
C1093      C1094   1.408       .  A
C1093      C1098   1.406       .  A
C1094      C1095   1.413       .  A
C1094      C1099   1.453       .  S
C1095      C1096   1.426       .  A
C1095      C1102   1.451       .  S
C1096      C1097   1.423       .  A
C1097      C1098   1.409       .  A
C1097      C1100   1.450       .  S
C1098      C1101   1.446       .  S
C1099      N1106   1.157       .  T
C1100      N1105   1.157       .  T
C1101      N1103   1.154       .  T
C1102      N1104   1.157       .  T
C1107      C1108   1.414       .  A
C1107      C1112   1.414       .  A
C1108      C1109   1.407       .  A
C1108      C1113   1.451       .  S
C1109      C1110   1.408       .  A
C1109      C1116   1.450       .  S
C1110      C1111   1.411       .  A
C1111      C1112   1.412       .  A
C1111      C1114   1.451       .  S
C1112      C1115   1.450       .  S
C1113      N1120   1.157       .  T
C1114      N1119   1.157       .  T
C1115      N1117   1.157       .  T
C1116      N1118   1.156       .  T
C1121      C1122   1.411       .  A
C1121      C1126   1.411       .  A
C1122      C1123   1.409       .  A
C1122      C1127   1.451       .  S
C1123      C1124   1.412       .  A
C1123      C1130   1.451       .  S
C1124      C1125   1.414       .  A
C1125      C1126   1.409       .  A
C1126      C1129   1.451       .  S
C1127      N1134   1.157       .  T
C1128      N1133   1.157   1_554  T
C1129      N1131   1.157       .  T
C1130      N1132   1.157       .  T
C1135      C1136   1.415       .  A
C1135      C1140   1.417       .  A
C1136      C1137   1.410       .  A
C1136      C1141   1.451       .  S
C1137      C1138   1.411       .  A
C1137      C1144   1.452       .  S
C1138      C1139   1.407       .  A
C1139      C1140   1.410       .  A
C1139      C1142   1.451       .  S
C1141      N1148   1.157       .  T
C1142      N1147   1.157       .  T
C1143      N1145   1.157   1_554  T
C1144      N1146   1.157       .  T
C1149      C1150   1.422       .  A
C1149      C1154   1.422       .  A
C1150      C1151   1.412       .  A
C1151      C1152   1.415       .  A
C1152      C1153   1.417       .  A
C1153      C1154   1.414       .  A
C1153      C1156   1.454       .  S
C1154      C1157   1.451       .  S
C1155      N1162   1.156       .  T
C1156      N1161   1.158       .  T
C1157      N1159   1.157       .  T
C1158      N1160   1.157       .  T
C1163      C1164   1.423       .  A
C1163      C1168   1.421       .  A
C1164      C1165   1.412       .  A
C1164      C1169   1.449       .  S
C1165      C1166   1.404       .  A
C1165      C1172   1.451       .  S
C1166      C1167   1.410       .  A
C1167      C1168   1.410       .  A
C1167      C1170   1.453       .  S
C1168      C1171   1.451       .  S
C1169      N1176   1.157       .  T
C1170      N1175   1.157       .  T
C1171      N1173   1.157       .  T
C1172      N1174   1.157       .  T
C1177      C1178   1.423       .  A
C1177      C1182   1.426       .  A
C1178      C1179   1.412       .  A
C1178      C1183   1.450       .  S
C1179      C1180   1.408       .  A
C1179      C1186   1.452       .  S
C1180      C1181   1.407       .  A
C1181      C1182   1.410       .  A
C1181      C1184   1.453       .  S
C1182      C1185   1.451       .  S
C1183      N1190   1.157       .  T
C1184      N1189   1.157       .  T
C1185      N1187   1.157       .  T
C1186      N1188   1.157       .  T
C1191      C1192   1.419       .  A
C1191      C1196   1.417       .  A
C1192      C1193   1.410       .  A
C1192      C1197   1.451       .  S
C1193      C1194   1.408       .  A
C1193      C1200   1.452       .  S
C1194      C1195   1.409       .  A
C1195      C1196   1.410       .  A
C1195      C1198   1.452       .  S
C1196      C1199   1.451       .  S
C1197      N1204   1.157       .  T
C1198      N1203   1.157       .  T
C1199      N1201   1.157       .  T
C1200      N1202   1.157       .  T
C1205      C1206   1.410       .  A
C1205      C1210   1.413       .  A
C1206      C1207   1.411       .  A
C1206      C1211   1.450       .  S
C1207      C1208   1.416       .  A
C1207      C1214   1.451       .  S
C1208      C1209   1.411       .  A
C1209      C1210   1.408       .  A
C1209      C1212   1.449       .  S
C1210      C1213   1.453       .  S
C1211      N1218   1.157       .  T
C1212      N1217   1.156       .  T
C1213      N1215   1.157       .  T
C1214      N1216   1.157       .  T
C1219      C1220   1.415       .  A
C1219      C1224   1.414       .  A
C1220      C1221   1.412       .  A
C1220      C1225   1.453       .  S
C1221      C1222   1.425       .  A
C1221      C1228   1.453       .  S
C1222      C1223   1.423       .  A
C1223      C1224   1.412       .  A
C1223      C1226   1.451       .  S
C1224      C1227   1.454       .  S
C1225      N1232   1.158       .  T
C1226      N1231   1.157       .  T
C1227      N1229   1.158       .  T
C1228      N1230   1.158       .  T
C1233      C1234   1.428       .  A
C1233      C1238   1.426       .  A
C1234      C1235   1.414       .  A
C1235      C1236   1.412       .  A
C1235      C1242   1.452       .  S
C1236      C1237   1.415       .  A
C1237      C1238   1.413       .  A
C1237      C1240   1.454       .  S
C1238      C1241   1.452       .  S
C1239      N1246   1.158       .  T
C1240      N1245   1.157       .  T
C1241      N1243   1.157       .  T
C1247      C1248   1.406       .  A
C1247      C1252   1.409       .  A
C1248      C1249   1.408       .  A
C1248      C1253   1.452       .  S
C1249      C1250   1.422       .  A
C1249      C1256   1.452       .  S
C1250      C1251   1.418       .  A
C1251      C1252   1.412       .  A
C1251      C1254   1.451       .  S
C1253      N1260   1.157       .  T
C1255      N1257   1.157       .  T
C1256      N1258   1.157       .  T
