geometry optimzed in LAMMPS
_audit_creation_date              2020-11-30 
_audit_creation_method            'lammps2cif' 
_symmetry_space_group_name_H-M    'P1' 
_symmetry_Int_Tables_number       1 
_symmetry_cell_setting            triclinic 
loop_ 
_symmetry_equiv_pos_as_xyz 
  x,y,z 
_cell_length_a                    39.25916397605589 
_cell_length_b                    39.3130202277605 
_cell_length_c                    39.27938617700414 
_cell_angle_alpha                 89.86024145574305 
_cell_angle_beta                  90.0982117404089 
_cell_angle_gamma                 89.96616821298441 
loop_ 
_atom_site_label 
_atom_site_type_symbol 
_atom_site_fract_x 
_atom_site_fract_y 
_atom_site_fract_z 
_atom_site_charge 
C1          C  0.99694059  0.26400628  0.73889962     0.00320
C2          C  0.99785011  0.23749322  0.76102812     0.00320
C3          C  0.25598105  0.99700154  0.73402356     0.00320
C4          C  0.23501078  0.99674442  0.76129717     0.00320
C5          C  0.99752202  0.73991219  0.26608165     0.00320
C6          C  0.99660049  0.76008962  0.23819081     0.00320
C7          C  0.73592855  0.99897749  0.26126695     0.00320
C8          C  0.75537276  0.99972373  0.23286509     0.00320
C9          C  0.74202224  0.26768881  0.00172626     0.00320
C10         C  0.76667365  0.24358624  0.00229855     0.00320
C11         C  0.25958335  0.73838828  0.00189283     0.00320
C12         C  0.23585274  0.76329628  0.00214778     0.00320
C13         C  0.73326037  0.74192208  0.00183640     0.00320
C14         C  0.75580124  0.76791049  0.00236773     0.00320
C15         C  0.74029157  0.00170832  0.73634678     0.00320
C16         C  0.76937031  0.00119274  0.75493783     0.00320
C17         C  0.00141018  0.73479095  0.74303353     0.00320
C18         C  0.00128609  0.75862378  0.76777977     0.00320
O19         O  0.15141371  0.87275758  0.93863836    -0.85590
O20         O  0.16152934  0.91090471  0.88132197    -0.82640
C21         C  0.15497285  0.92555586  0.85354946     0.97870
O22         O  0.12513787  0.93576060  0.84711308    -0.82670
O23         O  0.08678365  0.87829243  0.83864967    -0.85320
C24         C  0.07203744  0.85094344  0.84644901     1.02400
O25         O  0.06000214  0.84686639  0.87598914    -0.78080
O26         O  0.11619394  0.83617727  0.91554208    -0.78270
C27         C  0.14432282  0.84280634  0.92946770     1.02350
O28         O  0.11071901  0.92538668  0.96723501    -0.85590
O29         O  0.12399993  0.96613184  0.91058153    -0.82650
C30         C  0.09754702  0.98136942  0.90003169     0.97890
O31         O  0.07270328  0.96496963  0.88803245    -0.82680
O32         O  0.03100926  0.91004016  0.87443977    -0.85290
C33         C  0.01558794  0.90148792  0.90137276     1.02360
O34         O  0.03179573  0.88999954  0.92665620    -0.78100
O35         O  0.08618510  0.87522172  0.96926972    -0.78250
C36         C  0.09746918  0.90139936  0.98407772     1.02320
Cr37       Cr  0.13364057  0.91760435  0.92283322     1.93740
Cr38       Cr  0.08012422  0.92063715  0.86531200     1.93210
Cr39       Cr  0.07527355  0.86522999  0.92053836     1.39100
O40         O  0.09619096  0.90139886  0.90320044    -1.23340
O41         O  0.93318378  0.87355570  0.84594665    -0.85590
O42         O  0.87424794  0.91123425  0.83860283    -0.82640
C43         C  0.84731022  0.92681158  0.84652562     0.97870
O44         O  0.84393648  0.93858532  0.87620131    -0.82670
O45         O  0.83287268  0.88173093  0.91462567    -0.85320
C46         C  0.83923144  0.85276570  0.92690089     1.02400
O47         O  0.86923941  0.84458447  0.93544190    -0.78080
O48         O  0.90906198  0.83611313  0.87912168    -0.78270
C49         C  0.92415124  0.84332523  0.85181303     1.02350
O50         O  0.96171191  0.92478819  0.88753880    -0.85590
O51         O  0.90584886  0.96653555  0.87493167    -0.82650
C52         C  0.89828485  0.98169471  0.90230877     0.97890
O53         O  0.88795014  0.96501886  0.92770406    -0.82680
O54         O  0.87234986  0.91021464  0.96882203    -0.85290
C55         C  0.89859891  0.89864510  0.98333522     1.02360
O56         O  0.92193948  0.88458981  0.96648456    -0.78100
O57         O  0.96344943  0.87390756  0.91132457    -0.78250
C58         C  0.97823843  0.90068438  0.90108669     1.02320
Cr59       Cr  0.91710582  0.91771738  0.86496715     1.93740
Cr60       Cr  0.86244531  0.92204984  0.92045398     1.93210
Cr61       Cr  0.91460474  0.86306569  0.92148369     1.39100
O62         O  0.89834098  0.90097673  0.90264436    -1.23340
O63         O  0.06308949  0.87460278  0.15829148    -0.85590
O64         O  0.11947696  0.91459749  0.16730748    -0.82640
C65         C  0.14710742  0.92920641  0.16019468     0.97870
O66         O  0.15342039  0.93851207  0.13003064    -0.82670
O67         O  0.16408061  0.88216774  0.09052511    -0.85320
C68         C  0.15744873  0.85402524  0.07677497     1.02400
O69         O  0.12738001  0.84673840  0.06808100    -0.78080
O70         O  0.08817675  0.83740611  0.12537315    -0.78270
C71         C  0.07336623  0.84464143  0.15291830     1.02350
O72         O  0.03387639  0.92524551  0.11519533    -0.85590
O73         O  0.08795238  0.96845128  0.12911952    -0.82650
C74         C  0.09827635  0.98349918  0.10259692     0.97890
O75         O  0.11094678  0.96692694  0.07828732    -0.82680
O76         O  0.12492500  0.91263400  0.03632915    -0.85290
C77         C  0.09856646  0.90150011  0.02155097     1.02360
O78         O  0.07507496  0.88729613  0.03824973    -0.78100
O79         O  0.03349177  0.87389194  0.09317578    -0.78250
C80         C  0.01799202  0.90038435  0.10259748     1.02320
Cr81       Cr  0.07788319  0.91935077  0.13912680     1.93740
Cr82       Cr  0.13503973  0.92319972  0.08522344     1.93210
Cr83       Cr  0.08240049  0.86472066  0.08293857     1.39100
O84         O  0.09833453  0.90254889  0.10225198    -1.23340
O85         O  0.93543719  0.84509736  0.13024944    -0.85590
O86         O  0.87972285  0.83409061  0.08992594    -0.82640
C87         C  0.85190407  0.84089923  0.07543210     0.97870
O88         O  0.84517515  0.87081517  0.06580605    -0.82670
O89         O  0.83545359  0.90945933  0.12253544    -0.85320
C90         C  0.84189394  0.92485137  0.14984300     1.02400
O91         O  0.87148713  0.93617911  0.15552742    -0.78080
O92         O  0.91030618  0.87945507  0.16636047    -0.78270
C93         C  0.92480303  0.85164644  0.15988944     1.02350
O94         O  0.96470371  0.88687358  0.07825009    -0.85590
O95         O  0.91058644  0.87222991  0.03579534    -0.82650
C96         C  0.89971751  0.89849402  0.02062587     0.97890
O97         O  0.88651620  0.92274129  0.03694313    -0.82680
O98         O  0.87270019  0.96459331  0.09179715    -0.85290
C99         C  0.89992356  0.97972589  0.10014687     1.02360
O100        O  0.92453706  0.96338769  0.11264025    -0.78100
O101        O  0.96548374  0.90940100  0.12930403    -0.78250
C102        C  0.98077268  0.89996643  0.10272428     1.02320
Cr103      Cr  0.92096159  0.86273658  0.08484324     1.93740
Cr104      Cr  0.86312669  0.91569810  0.08094390     1.93210
Cr105      Cr  0.91663157  0.92039923  0.13781776     1.39100
O106        O  0.90036279  0.89961062  0.10101575    -1.23340
O107        O  0.87866190  0.08966251  0.83844768    -0.85590
O108        O  0.93603362  0.12764984  0.84938222    -0.82640
C109        C  0.92572451  0.15762409  0.85444249     0.97870
O110        O  0.91129944  0.16513473  0.88210832    -0.82670
O111        O  0.87215143  0.15467093  0.93918981    -0.85320
C112        C  0.84217008  0.14977648  0.92871636     1.02400
O113        O  0.83434642  0.12228043  0.91420329    -0.78080
O114        O  0.84367795  0.06549993  0.87450598    -0.78270
C115        C  0.85049018  0.07560149  0.84472653     1.02350
O116        O  0.90818592  0.03453096  0.87598776    -0.85590
O117        O  0.96394008  0.07584280  0.89111850    -0.82650
C118        C  0.98062988  0.10046987  0.90334156     0.97890
O119        O  0.96556096  0.12696434  0.91345071    -0.82680
O120        O  0.92289874  0.11236724  0.96782245    -0.85290
C121        C  0.89815258  0.09960052  0.98389875     1.02360
O122        O  0.87149972  0.09007535  0.96861246    -0.78100
O123        O  0.88523943  0.03550156  0.92684354    -0.78250
C124        C  0.89808170  0.01917617  0.90239862     1.02320
Cr125      Cr  0.91996278  0.08316921  0.86698368     1.93740
Cr126      Cr  0.91661036  0.13655259  0.92393597     1.93210
Cr127      Cr  0.86197172  0.08001569  0.91973328     1.39100
O128        O  0.89964394  0.09974367  0.90373563    -1.23340
O129        O  0.91644398  0.11480121  0.16623108    -0.85590
O130        O  0.87727769  0.05872986  0.15472270    -0.82640
C131        C  0.84753345  0.07072944  0.15276178     0.97870
O132        O  0.83849505  0.08692174  0.12637791    -0.82670
O133        O  0.84434352  0.12545155  0.06739563    -0.85320
C134        C  0.84886823  0.15533621  0.07780946     1.02400
O135        O  0.87654411  0.16297888  0.09230163    -0.78080
O136        O  0.93521909  0.15314380  0.12998075    -0.78270
C137        C  0.92864950  0.14378500  0.16013998     1.02350
O138        O  0.96815003  0.08828487  0.12368260    -0.85590
O139        O  0.92672393  0.03343290  0.10807644    -0.82650
C140        C  0.90061838  0.01704605  0.09911623     0.97890
O141        O  0.87313458  0.03249480  0.09280568    -0.82680
O142        O  0.88529323  0.07513765  0.03745943    -0.85290
C143        C  0.89802553  0.09981758  0.02112916     1.02360
O144        O  0.90745300  0.12671150  0.03608528    -0.78100
O145        O  0.96422747  0.11469841  0.07463652    -0.78250
C146        C  0.98187939  0.10038249  0.09731309     1.02320
Cr147      Cr  0.92068790  0.07564140  0.13510942     1.93740
Cr148      Cr  0.86346881  0.08130934  0.08252784     1.93210
Cr149      Cr  0.91934666  0.13620280  0.08461919     1.39100
O150        O  0.90143920  0.09778467  0.10060235    -1.23340
O151        O  0.16218037  0.08821350  0.87447205    -0.85590
O152        O  0.15556045  0.12557443  0.93293374    -0.82640
C153        C  0.15092905  0.15566518  0.92268013     0.97870
O154        O  0.12325320  0.16344653  0.90825137    -0.82670
O155        O  0.06404407  0.15542049  0.87165759    -0.85320
C156        C  0.07252351  0.14910785  0.84134751     1.02400
O157        O  0.08510141  0.12058124  0.83379760    -0.78080
O158        O  0.12373391  0.06327432  0.84281244    -0.78270
C159        C  0.15388189  0.07369912  0.84711323     1.02350
O160        O  0.12574612  0.03345279  0.90585815    -0.85590
O161        O  0.11375103  0.07420063  0.96209221    -0.82650
C162        C  0.10240027  0.09918671  0.97873603     0.97890
O163        O  0.09328358  0.12622591  0.96372216    -0.82680
O164        O  0.03566454  0.11469519  0.92442589    -0.85290
C165        C  0.01805136  0.10086031  0.90130141     1.02360
O166        O  0.03176247  0.09039775  0.87422580    -0.78100
O167        O  0.07311676  0.03536694  0.88726267    -0.78250
C168        C  0.09817518  0.01867272  0.89852101     1.02320
Cr169      Cr  0.13607818  0.08169094  0.91723069     1.93740
Cr170      Cr  0.08054743  0.13674506  0.91568798     1.93210
Cr171      Cr  0.07988923  0.07909871  0.86258836     1.39100
O172        O  0.09852043  0.09902320  0.89868707    -1.23340
O173        O  0.12679123  0.07003010  0.15546636    -0.85590
O174        O  0.08837945  0.12887917  0.15958061    -0.82640
C175        C  0.07179266  0.15482250  0.15014946     0.97870
O176        O  0.06013518  0.15597005  0.12037895    -0.82670
O177        O  0.11916320  0.16523358  0.08495784    -0.85320
C178        C  0.14804887  0.15853449  0.07272650     1.02400
O179        O  0.15559467  0.12858755  0.06347085    -0.78080
O180        O  0.16510464  0.08922928  0.12003923    -0.78270
C181        C  0.15727434  0.07732116  0.14874961     1.02350
O182        O  0.07614810  0.03802039  0.11616851    -0.85590
O183        O  0.03445036  0.09412994  0.12393184    -0.82650
C184        C  0.01920649  0.10082521  0.09631474     0.97890
O185        O  0.03558884  0.11082818  0.07047272    -0.82680
O186        O  0.09243007  0.12634201  0.03047983    -0.85290
C187        C  0.10234536  0.09951122  0.01613693     1.02360
O188        O  0.11429181  0.07529935  0.03347427    -0.78100
O189        O  0.12565857  0.03514574  0.08980893    -0.78250
C190        C  0.09944913  0.02090875  0.10205251     1.02320
Cr191      Cr  0.08278984  0.08421246  0.13556223     1.93740
Cr192      Cr  0.07868933  0.13636886  0.07794948     1.93210
Cr193      Cr  0.13689406  0.08346165  0.07824058     1.39100
O194        O  0.09939994  0.10083459  0.09700205    -1.23340
C195        C  0.49960483  0.25625144  0.23355116     0.00320
C196        C  0.50060096  0.23471074  0.26048375     0.00320
C197        C  0.23332779  0.25935935  0.49926847     0.00320
C198        C  0.25970716  0.23736288  0.49886330     0.00320
C199        C  0.23743928  0.50084808  0.26315266     0.00320
C200        C  0.26022337  0.50080144  0.23737445     0.00320
C201        C  0.23189625  0.24369138  0.99919405     0.00320
C202        C  0.25616350  0.26798525  0.99953684     0.00320
C203        C  0.23435999  0.00337058  0.24265055     0.00320
C204        C  0.25992770  0.00362059  0.26579983     0.00320
C205        C  0.50180203  0.74081930  0.76733376     0.00320
C206        C  0.50153939  0.76633913  0.74419137     0.00320
C207        C  0.23602234  0.73825087  0.50355245     0.00320
C208        C  0.25929540  0.76365749  0.50398275     0.00320
C209        C  0.49412928  0.74299312  0.23329047     0.00320
C210        C  0.49472268  0.76712504  0.25787132     0.00320
O211        O  0.36935721  0.84529430  0.43896585    -0.85590
O212        O  0.40768023  0.83525832  0.38147290    -0.82640
C213        C  0.42128597  0.84278981  0.35342157     0.97870
O214        O  0.43043893  0.87295492  0.34754832    -0.82670
O215        O  0.37192828  0.91112715  0.34129077    -0.85320
C216        C  0.34529503  0.92707026  0.34949088     1.02400
O217        O  0.34213926  0.93852277  0.37933150    -0.78080
O218        O  0.33252502  0.88204661  0.41829650    -0.78270
C219        C  0.33919774  0.85340786  0.43104495     1.02350
O220        O  0.42278909  0.88528774  0.46797277    -0.85590
O221        O  0.46277870  0.87328150  0.41184293    -0.82650
C222        C  0.47749614  0.89977799  0.40092154     0.97890
O223        O  0.46079630  0.92398731  0.38778130    -0.82680
O224        O  0.40502345  0.96598456  0.37626555    -0.85290
C225        C  0.39802244  0.98148171  0.40352906     1.02360
O226        O  0.38777068  0.96531626  0.42928281    -0.78100
O227        O  0.37323329  0.91089879  0.47130457    -0.78250
C228        C  0.39979137  0.89939347  0.48528816     1.02320
Cr229      Cr  0.41425798  0.86307560  0.42345908     1.93740
Cr230      Cr  0.41549058  0.91722864  0.36650274     1.93210
Cr231      Cr  0.36210227  0.92231735  0.42311931     1.39100
O232        O  0.39755819  0.90090862  0.40465926    -1.23340
O233        O  0.33670339  0.12386457  0.41187057    -0.85590
O234        O  0.34552956  0.06620583  0.37312098    -0.82640
C235        C  0.35365131  0.07456545  0.34314402     0.97870
O236        O  0.38228363  0.08741968  0.33687382    -0.82670
O237        O  0.43860641  0.12592784  0.34847191    -0.85320
C238        C  0.42765206  0.15573750  0.35320763     1.02400
O239        O  0.41352575  0.16362404  0.38105338    -0.78080
O240        O  0.37438100  0.15425457  0.43891680    -0.78270
C241        C  0.34484965  0.15103616  0.42690279     1.02350
O242        O  0.37210571  0.09036668  0.46753047    -0.85590
O243        O  0.38477794  0.03566659  0.42654326    -0.82650
C244        C  0.39849029  0.01881929  0.40298687     0.97890
O245        O  0.41008683  0.03345712  0.37679382    -0.82680
O246        O  0.46551522  0.07447035  0.39230755    -0.85290
C247        C  0.48204369  0.09927093  0.40421579     1.02360
O248        O  0.46707479  0.12611444  0.41310203    -0.78100
O249        O  0.42430440  0.11070994  0.46708562    -0.78250
C250        C  0.39929657  0.09804629  0.48294503     1.02320
Cr251      Cr  0.36298171  0.08062767  0.41846222     1.93740
Cr252      Cr  0.42240408  0.08165205  0.36685741     1.93210
Cr253      Cr  0.41844687  0.13556540  0.42332066     1.39100
O254        O  0.40134804  0.09907623  0.40292251    -1.23340
O255        O  0.62282165  0.93515009  0.34394642    -0.85590
O256        O  0.58368662  0.87796175  0.33497782    -0.82640
C257        C  0.56958942  0.85014516  0.34261120     0.97870
O258        O  0.55872056  0.84501909  0.37243988    -0.82670
O259        O  0.61527666  0.83277906  0.41159309    -0.85320
C260        C  0.64404434  0.83930573  0.42425888     1.02400
O261        O  0.65171900  0.86929611  0.43281772    -0.78080
O262        O  0.66007628  0.90839155  0.37555527    -0.78270
C263        C  0.65274803  0.92433751  0.34867404     1.02350
O264        O  0.57212137  0.96343180  0.38751025    -0.85590
O265        O  0.52952123  0.90921334  0.37297131    -0.82650
C266        C  0.51480543  0.90006365  0.40003231     0.97890
O267        O  0.53156691  0.88761295  0.42443945    -0.82680
O268        O  0.58629153  0.87232167  0.46562186    -0.85290
C269        C  0.59804270  0.89845962  0.48008832     1.02360
O270        O  0.61205792  0.92190470  0.46316162    -0.78100
O271        O  0.62436135  0.96350978  0.40767005    -0.78250
C272        C  0.59745567  0.97928116  0.39935004     1.02320
Cr273      Cr  0.57837587  0.91964994  0.36303123     1.93740
Cr274      Cr  0.57473190  0.86264076  0.41708114     1.93210
Cr275      Cr  0.63376323  0.91452394  0.41825921     1.39100
O276        O  0.59553981  0.89899893  0.39969533    -1.23340
O277        O  0.62443316  0.16190356  0.41215059    -0.85590
O278        O  0.56513879  0.15404029  0.37461724    -0.82640
C279        C  0.57386569  0.14811318  0.34443506     0.97870
O280        O  0.58700274  0.11983988  0.33679034    -0.82670
O281        O  0.62504931  0.06193748  0.34600740    -0.85320
C282        C  0.65520952  0.07183563  0.35085907     1.02400
O283        O  0.66364938  0.08491586  0.37895324    -0.78080
O284        O  0.65598450  0.12315227  0.43673873    -0.78270
C285        C  0.65208203  0.15327919  0.42634696     1.02350
O286        O  0.59217252  0.12570865  0.46696335    -0.85590
O287        O  0.53631951  0.11333165  0.42641015    -0.82650
C288        C  0.51921074  0.09956749  0.40290329     0.97890
O289        O  0.53320517  0.08945622  0.37591371    -0.82680
O290        O  0.57344813  0.03391316  0.38867007    -0.85290
C291        C  0.59799819  0.01672811  0.40023411     1.02360
O292        O  0.62504832  0.03125788  0.40983755    -0.78100
O293        O  0.61247698  0.07357807  0.46585664    -0.78250
C294        C  0.60045733  0.09866045  0.48210734     1.02320
Cr295      Cr  0.58115583  0.13546836  0.41859805     1.93740
Cr296      Cr  0.58118907  0.07803117  0.36505865     1.93210
Cr297      Cr  0.63604168  0.07955975  0.42123496     1.39100
O298        O  0.59924245  0.09753196  0.40179297    -1.23340
O299        O  0.62862724  0.84554963  0.56461030    -0.85590
O300        O  0.58918123  0.83501865  0.62085815    -0.82640
C301        C  0.57651421  0.84207617  0.64940359     0.97870
O302        O  0.56944427  0.87238691  0.65695253    -0.82670
O303        O  0.62783667  0.91113221  0.66147275    -0.85320
C304        C  0.65392267  0.92747807  0.65231676     1.02400
O305        O  0.65527130  0.93983277  0.62277321    -0.78080
O306        O  0.66553573  0.88231867  0.58513174    -0.78270
C307        C  0.65867145  0.85334752  0.57325159     1.02350
O308        O  0.57557709  0.88606745  0.53469858    -0.85590
O309        O  0.53523277  0.87403491  0.59060038    -0.82650
C310        C  0.52055943  0.89969134  0.60324868     0.97890
O311        O  0.53720956  0.92318295  0.61759885    -0.82680
O312        O  0.59293150  0.96579180  0.62657216    -0.85290
C313        C  0.59942526  0.98129226  0.59903165     1.02360
O314        O  0.60930857  0.96511584  0.57314671    -0.78100
O315        O  0.62552977  0.91052380  0.53156519    -0.78250
C316        C  0.59908594  0.89931741  0.51738393     1.02320
Cr317      Cr  0.58357392  0.86352996  0.57931860     1.93740
Cr318      Cr  0.58338773  0.91686661  0.63730341     1.93210
Cr319      Cr  0.63568332  0.92251542  0.57964636     1.39100
O320        O  0.60046385  0.90095137  0.59851545    -1.23340
O321        O  0.61865485  0.08757143  0.66519187    -0.85590
O322        O  0.56135586  0.12589684  0.65443048    -0.82640
C323        C  0.57118531  0.15605834  0.64945552     0.97870
O324        O  0.58525141  0.16404198  0.62166842    -0.82670
O325        O  0.62520115  0.15474517  0.56502367    -0.85320
C326        C  0.65482564  0.14985261  0.57648226     1.02400
O327        O  0.66220357  0.12207400  0.59087446    -0.78080
O328        O  0.65313229  0.06394012  0.62851374    -0.78270
C329        C  0.64677157  0.07368400  0.65840275     1.02350
O330        O  0.58911974  0.03337097  0.62622983    -0.85590
O331        O  0.53327071  0.07491526  0.61225843    -0.82650
C332        C  0.51677148  0.09954613  0.59965414     0.97890
O333        O  0.53187530  0.12594804  0.58937682    -0.82680
O334        O  0.57513602  0.11188786  0.53522557    -0.85290
C335        C  0.60006377  0.09905831  0.51940648     1.02360
O336        O  0.62686114  0.09053592  0.53494173    -0.78100
O337        O  0.61223407  0.03550340  0.57541797    -0.78250
C338        C  0.59927867  0.01867045  0.59950197     1.02320
Cr339      Cr  0.57732544  0.08174284  0.63630712     1.93740
Cr340      Cr  0.58069089  0.13591796  0.57948772     1.93210
Cr341      Cr  0.63534238  0.07970871  0.58373977     1.39100
O342        O  0.59755563  0.09895710  0.59967796    -1.23340
O343        O  0.41009323  0.12123980  0.66577325    -0.85590
O344        O  0.37195470  0.06353521  0.65683003    -0.82640
C345        C  0.34165349  0.07256595  0.65065563     0.97870
O346        O  0.33415149  0.08556476  0.62216053    -0.82670
O347        O  0.34378442  0.12246314  0.56315938    -0.85320
C348        C  0.34679197  0.15264998  0.57311882     1.02400
O349        O  0.37373087  0.16174425  0.58826278    -0.78080
O350        O  0.43193952  0.15495401  0.62737502    -0.78270
C351        C  0.42268328  0.14961687  0.65760565     1.02350
O352        O  0.46493457  0.08999882  0.62778230    -0.85590
O353        O  0.42442407  0.03431257  0.61557956    -0.82650
C354        C  0.40016593  0.01708988  0.60349541     0.97890
O355        O  0.37325009  0.03151278  0.59346947    -0.82680
O356        O  0.38746224  0.07254755  0.53679823    -0.85290
C357        C  0.39925434  0.09759563  0.52023251     1.02360
O358        O  0.40744870  0.12477829  0.53506380    -0.78100
O359        O  0.46257746  0.11369875  0.57703265    -0.78250
C360        C  0.47940045  0.10003128  0.60087631     1.02320
Cr361      Cr  0.41644927  0.07894959  0.63821733     1.93740
Cr362      Cr  0.36288834  0.07943111  0.58068288     1.93210
Cr363      Cr  0.41733644  0.13552575  0.58343168     1.39100
O364        O  0.39915384  0.09779022  0.60065310    -1.23340
O365        O  0.43796196  0.84436485  0.63138076    -0.85590
O366        O  0.38215787  0.83345418  0.59103278    -0.82640
C367        C  0.35431123  0.84027298  0.57659053     0.97870
O368        O  0.34760976  0.87033211  0.56738387    -0.82670
O369        O  0.33815813  0.90775426  0.62518852    -0.85320
C370        C  0.34463511  0.92301949  0.65258633     1.02400
O371        O  0.37405704  0.93484445  0.65802748    -0.78080
O372        O  0.41324405  0.87859812  0.66781626    -0.78270
C373        C  0.42713075  0.85058347  0.66101895     1.02350
O374        O  0.46686743  0.88684654  0.57964870    -0.85590
O375        O  0.41265561  0.87269267  0.53735908    -0.82650
C376        C  0.40148436  0.89905826  0.52256744     0.97890
O377        O  0.38822945  0.92305051  0.53926736    -0.82680
O378        O  0.37408984  0.96393829  0.59501156    -0.85290
C379        C  0.40082345  0.97966922  0.60383688     1.02360
O380        O  0.42607803  0.96366361  0.61555377    -0.78100
O381        O  0.46819929  0.90944087  0.63066916    -0.78250
C382        C  0.48324648  0.89982060  0.60397743     1.02320
Cr383      Cr  0.42328468  0.86251576  0.58621549     1.93740
Cr384      Cr  0.36521271  0.91510506  0.58334712     1.93210
Cr385      Cr  0.41916527  0.91988455  0.63979724     1.39100
O386        O  0.40277193  0.89925379  0.60287081    -1.23340
C387        C  0.73734069  0.76407489  0.49931034     0.00320
C388        C  0.76309613  0.74118876  0.49934039     0.00320
C389        C  0.23260608  0.49661896  0.74148590     0.00320
C390        C  0.25849297  0.49841235  0.76428327     0.00320
C391        C  0.49696348  0.23820210  0.73837163     0.00320
C392        C  0.49755275  0.26259116  0.76269452     0.00320
O393        O  0.58387473  0.66600121  0.11807144    -0.85590
O394        O  0.62456705  0.65476743  0.06260712    -0.82640
C395        C  0.65448422  0.64982343  0.07353704     0.97870
O396        O  0.66247325  0.62186803  0.08733291    -0.82670
O397        O  0.65323988  0.56406136  0.12608987    -0.85320
C398        C  0.64957924  0.57566989  0.15571552     1.02400
O399        O  0.62242524  0.59091270  0.16356051    -0.78080
O400        O  0.56407460  0.62925996  0.15510473    -0.78270
C401        C  0.57074207  0.65952338  0.14662980     1.02350
O402        O  0.53145882  0.62535409  0.08819133    -0.85590
O403        O  0.57369637  0.61096563  0.03411151    -0.82650
C404        C  0.59849794  0.59880512  0.01781837     0.97890
O405        O  0.62547841  0.59039495  0.03301753    -0.82680
O406        O  0.60992920  0.53635847  0.07524530    -0.85290
C407        C  0.59836250  0.52013160  0.10046826     1.02360
O408        O  0.59021017  0.53547559  0.12760348    -0.78100
O409        O  0.53381098  0.57676104  0.11605150    -0.78250
C410        C  0.51691672  0.59975257  0.10105528     1.02320
Cr411      Cr  0.57989159  0.63605747  0.07753430     1.93740
Cr412      Cr  0.63451165  0.57994603  0.08184002     1.93210
Cr413      Cr  0.57927402  0.58436580  0.13723999     1.39100
O414        O  0.59759131  0.60013681  0.09882210    -1.23340
O415        O  0.58481616  0.61822514  0.83495513    -0.85590
O416        O  0.62330079  0.56159297  0.84630771    -0.82640
C417        C  0.65286527  0.57385289  0.84902069     0.97870
O418        O  0.66133099  0.58900237  0.87607724    -0.82670
O419        O  0.65356333  0.62600596  0.93554430    -0.85320
C420        C  0.64794218  0.65626913  0.92687877     1.02400
O421        O  0.62012395  0.66396575  0.91269978    -0.78080
O422        O  0.56423638  0.65470019  0.87192379    -0.78270
C423        C  0.57339464  0.64733411  0.84202900     1.02350
O424        O  0.53067468  0.58884822  0.87363260    -0.85590
O425        O  0.57249187  0.53463606  0.89032314    -0.82650
C426        C  0.59813202  0.51825267  0.90074613     0.97890
O427        O  0.62543867  0.53358823  0.90807527    -0.82680
O428        O  0.61253366  0.57509213  0.96411952    -0.85290
C429        C  0.59837504  0.59893817  0.98050733     1.02360
O430        O  0.58728512  0.62525644  0.96563367    -0.78100
O431        O  0.53249072  0.61412587  0.92327199    -0.78250
C432        C  0.51582992  0.60022861  0.89958531     1.02320
Cr433      Cr  0.57921098  0.57765952  0.86455840     1.93740
Cr434      Cr  0.63491361  0.58222933  0.91925983     1.93210
Cr435      Cr  0.57766161  0.63621296  0.91701674     1.39100
O436        O  0.59696183  0.59872524  0.90057045    -1.23340
O437        O  0.33352880  0.58725427  0.12009471    -0.85590
O438        O  0.34435590  0.62539044  0.06272131    -0.82640
C439        C  0.34847346  0.65506338  0.07407882     0.97870
O440        O  0.37590326  0.66288682  0.08889820    -0.82670
O441        O  0.43316254  0.65398681  0.12822566    -0.85320
C442        C  0.42327993  0.64787440  0.15816290     1.02400
O443        O  0.40959802  0.61985732  0.16544363    -0.78080
O444        O  0.37012720  0.56367440  0.15521177    -0.78270
C445        C  0.34033783  0.57396290  0.14852505     1.02350
O446        O  0.37176992  0.53256843  0.09068478    -0.85590
O447        O  0.38716602  0.57399084  0.03596388    -0.82650
C448        C  0.39929154  0.59879460  0.01957926     0.97890
O449        O  0.40836747  0.62568739  0.03463144    -0.82680
O450        O  0.46303623  0.61266255  0.07720115    -0.85290
C451        C  0.47946714  0.59924021  0.10144339     1.02360
O452        O  0.46437982  0.58875921  0.12788406    -0.78100
O453        O  0.42251520  0.53432061  0.11410537    -0.78250
C454        C  0.39837594  0.51776137  0.10100169     1.02320
Cr455      Cr  0.36242845  0.58113100  0.07919098     1.93740
Cr456      Cr  0.41847157  0.63559514  0.08353159     1.93210
Cr457      Cr  0.41534611  0.57831758  0.13738594     1.39100
O458        O  0.39898419  0.59816993  0.09994368    -1.23340
O459        O  0.37395076  0.58942562  0.83714511    -0.85590
O460        O  0.43094782  0.62901024  0.84564036    -0.82640
C461        C  0.42276217  0.65915965  0.85327113     0.97870
O462        O  0.40955490  0.66574088  0.88175939    -0.82670
O463        O  0.37098315  0.65439200  0.93895642    -0.85320
C464        C  0.34104727  0.65009722  0.92807651     1.02400
O465        O  0.33291954  0.62254345  0.91373756    -0.78080
O466        O  0.34091651  0.56491837  0.87464641    -0.78270
C467        C  0.34646195  0.57460564  0.84449900     1.02350
O468        O  0.40608736  0.53478331  0.87428104    -0.85590
O469        O  0.46167787  0.57688558  0.88620813    -0.82650
C470        C  0.47842268  0.60064920  0.89991897     0.97890
O471        O  0.46366225  0.62681365  0.91105991    -0.82680
O472        O  0.42277829  0.61126018  0.96569423    -0.85290
C473        C  0.39834790  0.59888895  0.98237053     1.02360
O474        O  0.37102003  0.59034316  0.96772279    -0.78100
O475        O  0.38415204  0.53575845  0.92570846    -0.78250
C476        C  0.39696524  0.51945759  0.90119571     1.02320
Cr477      Cr  0.41652596  0.58381089  0.86411705     1.93740
Cr478      Cr  0.41521481  0.63627508  0.92255002     1.93210
Cr479      Cr  0.36048437  0.58012925  0.91902871     1.39100
O480        O  0.39760533  0.59995134  0.90191985    -1.23340
O481        O  0.65298754  0.37225031  0.93678577    -0.85590
O482        O  0.66246327  0.41051873  0.87922016    -0.82640
C483        C  0.65552140  0.42514426  0.85147495     0.97870
O484        O  0.62580871  0.43622998  0.84574975    -0.82670
O485        O  0.58601036  0.38032820  0.83564360    -0.85320
C486        C  0.57169162  0.35249307  0.84236563     1.02400
O487        O  0.56274968  0.34532992  0.87246964    -0.78080
O488        O  0.61960806  0.33502032  0.91224852    -0.78270
C489        C  0.64722326  0.34224725  0.92695162     1.02350
O490        O  0.61123194  0.42409844  0.96494472    -0.85590
O491        O  0.62553557  0.46566790  0.90936124    -0.82650
C492        C  0.59848175  0.48090237  0.90068232     0.97890
O493        O  0.57361597  0.46451147  0.88896297    -0.82680
O494        O  0.53214906  0.41068979  0.87407111    -0.85290
C495        C  0.51750757  0.40063711  0.90082264     1.02360
O496        O  0.53404617  0.38693596  0.92471009    -0.78100
O497        O  0.58846708  0.37302582  0.96665407    -0.78250
C498        C  0.59835227  0.39976493  0.98158058     1.02320
Cr499      Cr  0.63485407  0.41687532  0.92092467     1.93740
Cr500      Cr  0.58081249  0.42120724  0.86432269     1.93210
Cr501      Cr  0.57787046  0.36323264  0.91762883     1.39100
O502        O  0.59771863  0.40041847  0.90103579    -1.23340
O503        O  0.65327661  0.43968621  0.12682418    -0.85590
O504        O  0.66470997  0.38350384  0.08795401    -0.82640
C505        C  0.65868384  0.35511931  0.07446522     0.97870
O506        O  0.62877550  0.34705122  0.06572330    -0.82670
O507        O  0.59032714  0.33711567  0.12302348    -0.85320
C508        C  0.57516416  0.34370819  0.15047256     1.02400
O509        O  0.56443629  0.37345876  0.15614258    -0.78080
O510        O  0.62171140  0.41291826  0.16424361    -0.78270
C511        C  0.64868213  0.42859817  0.15671116     1.02350
O512        O  0.60890214  0.46637573  0.07517072    -0.85590
O513        O  0.62493949  0.41215416  0.03372693    -0.82650
C514        C  0.59887952  0.40035485  0.01903237     0.97890
O515        O  0.57539766  0.38630589  0.03590789    -0.82680
O516        O  0.53450690  0.37320096  0.09214108    -0.85290
C517        C  0.51894139  0.39983437  0.10143878     1.02360
O518        O  0.53505098  0.42484474  0.11355588    -0.78100
O519        O  0.58989097  0.46734600  0.12755423    -0.78250
C520        C  0.59797446  0.48273398  0.10043495     1.02320
Cr521      Cr  0.63482363  0.42363803  0.08228947     1.93740
Cr522      Cr  0.58345351  0.36419700  0.08079906     1.93210
Cr523      Cr  0.57936002  0.41837357  0.13717371     1.39100
O524        O  0.59905926  0.40212822  0.09983169    -1.23340
O525        O  0.43484354  0.37252580  0.84787778    -0.85590
O526        O  0.37729134  0.41086528  0.83842667    -0.82640
C527        C  0.35010686  0.42619910  0.84561753     0.97870
O528        O  0.34528750  0.43721269  0.87538425    -0.82670
O529        O  0.33578325  0.37955763  0.91322726    -0.85320
C530        C  0.34281258  0.35165352  0.92747733     1.02400
O531        O  0.37234438  0.34620876  0.93912039    -0.78080
O532        O  0.41186382  0.33576065  0.88304325    -0.78270
C533        C  0.42587807  0.34247572  0.85501566     1.02350
O534        O  0.46379684  0.42487451  0.88845086    -0.85590
O535        O  0.40781599  0.46642569  0.87518147    -0.82650
C536        C  0.39833095  0.48185229  0.90186715     0.97890
O537        O  0.38718399  0.46532110  0.92715588    -0.82680
O538        O  0.37243109  0.40944730  0.96876195    -0.85290
C539        C  0.39930458  0.40041814  0.98409220     1.02360
O540        O  0.42432028  0.38902302  0.96762948    -0.78100
O541        O  0.46560523  0.37451929  0.91300909    -0.78250
C542        C  0.48036477  0.40076309  0.90183959     1.02320
Cr543      Cr  0.41939529  0.41745909  0.86570295     1.93740
Cr544      Cr  0.36333432  0.42123579  0.91996325     1.93210
Cr545      Cr  0.41720017  0.36457469  0.92403634     1.39100
O546        O  0.40029461  0.40124312  0.90338347    -1.23340
O547        O  0.41073219  0.33581518  0.12314615    -0.85590
O548        O  0.37250309  0.34538754  0.06543714    -0.82640
C549        C  0.34270534  0.35011649  0.07659885     0.97870
O550        O  0.33586360  0.37697019  0.09258703    -0.82670
O551        O  0.34518133  0.43440546  0.13088643    -0.85320
C552        C  0.35308289  0.42609976  0.16095993     1.02400
O553        O  0.38137481  0.41238988  0.16743808    -0.78080
O554        O  0.43720093  0.37253112  0.15561117    -0.78270
C555        C  0.42577721  0.34284546  0.15058763     1.02350
O556        O  0.46618187  0.37252037  0.09302848    -0.85590
O557        O  0.42441270  0.38808796  0.03785145    -0.82650
C558        C  0.39926482  0.39985569  0.02154299     0.97890
O559        O  0.37216572  0.40825858  0.03688777    -0.82680
O560        O  0.38487978  0.46390557  0.07806800    -0.85290
C561        C  0.39896847  0.48057779  0.10162166     1.02360
O562        O  0.41064587  0.46595597  0.12779915    -0.78100
O563        O  0.46491684  0.42463239  0.11239825    -0.78250
C564        C  0.48146186  0.39957293  0.10131601     1.02320
Cr565      Cr  0.41722509  0.36355816  0.08149255     1.93740
Cr566      Cr  0.36268903  0.41931277  0.08581230     1.93210
Cr567      Cr  0.42182822  0.41750270  0.13772846     1.39100
O568        O  0.40063609  0.40042146  0.10161157    -1.23340
C569        C  0.75823786  0.49998196  0.73679276     0.00320
C570        C  0.73711772  0.49974247  0.76391710     0.00320
C571        C  0.99827305  0.23718184  0.23943611     0.00320
C572        C  0.99843276  0.26566510  0.25894453     0.00320
C573        C  0.73922863  0.23508624  0.50297532     0.00320
C574        C  0.76091055  0.26176460  0.50224203     0.00320
C575        C  0.76629661  0.50156796  0.25801182     0.00320
C576        C  0.73820555  0.50092940  0.23800120     0.00320
O577        O  0.12382359  0.65569857  0.43776490    -0.85590
O578        O  0.08511190  0.66524002  0.38053022    -0.82640
C579        C  0.07172469  0.65835748  0.35218319     0.97870
O580        O  0.06126960  0.62862730  0.34583150    -0.82670
O581        O  0.11769849  0.58909189  0.33528967    -0.85320
C582        C  0.14584760  0.57521938  0.34216022     1.02400
O583        O  0.15289996  0.56656777  0.37232294    -0.78080
O584        O  0.16105673  0.62380575  0.41150972    -0.78270
C585        C  0.15381206  0.65075235  0.42726526     1.02350
O586        O  0.07279846  0.61171527  0.46553845    -0.85590
O587        O  0.03054477  0.62679568  0.41023128    -0.82650
C588        C  0.01546596  0.60009352  0.40048438     0.97890
O589        O  0.03219616  0.57589658  0.38777482    -0.82680
O590        O  0.08730545  0.53505166  0.37359055    -0.85290
C591        C  0.09871219  0.51992808  0.39960058     1.02360
O592        O  0.11240305  0.53617808  0.42373985    -0.78100
O593        O  0.12491476  0.59141671  0.46627106    -0.78250
C594        C  0.09803256  0.59996367  0.48181519     1.02320
Cr595      Cr  0.07936643  0.63661247  0.42175332     1.93740
Cr596      Cr  0.07630963  0.58358912  0.36395150     1.93210
Cr597      Cr  0.13447153  0.58114376  0.41718189     1.39100
O598        O  0.09657666  0.60018336  0.40105745    -1.23340
O599        O  0.90672263  0.66255220  0.37943276    -0.85590
O600        O  0.86856025  0.65385596  0.43710628    -0.82640
C601        C  0.83844857  0.64553170  0.42942603     0.97870
O602        O  0.83181998  0.61649361  0.41768274    -0.82670
O603        O  0.84301635  0.55971441  0.37959272    -0.85320
C604        C  0.84567984  0.57175969  0.34998654     1.02400
O605        O  0.87261370  0.58709753  0.34138575    -0.78080
O606        O  0.93153254  0.62473062  0.34760932    -0.78270
C607        C  0.92143269  0.65479420  0.35205242     1.02350
O608        O  0.96237950  0.62600561  0.41103871    -0.85590
O609        O  0.92144752  0.61526658  0.46806692    -0.82650
C610        C  0.89810482  0.60132506  0.48529093     0.97890
O611        O  0.87234975  0.58858321  0.47106790    -0.82680
O612        O  0.88762885  0.53335664  0.43011254    -0.85290
C613        C  0.89737572  0.51697484  0.40433100     1.02360
O614        O  0.90510695  0.53240540  0.37719885    -0.78100
O615        O  0.96133987  0.57435397  0.38936505    -0.78250
C616        C  0.97779203  0.59944104  0.40113582     1.02320
Cr617      Cr  0.91356412  0.63606236  0.42244081     1.93740
Cr618      Cr  0.86193846  0.57639563  0.42320601     1.93210
Cr619      Cr  0.91606233  0.58089488  0.36712435     1.39100
O620        O  0.89751342  0.59766374  0.40472790    -1.23340
O621        O  0.83623086  0.59139156  0.62724274    -0.85590
O622        O  0.84292588  0.63005366  0.56908349    -0.82640
C623        C  0.84920081  0.66022705  0.57796453     0.97870
O624        O  0.87739026  0.66761704  0.59142744    -0.82670
O625        O  0.93426405  0.65771958  0.63058406    -0.85320
C626        C  0.92451369  0.65104009  0.66052069     1.02400
O627        O  0.91145338  0.62258623  0.66760370    -0.78080
O628        O  0.87432325  0.56442901  0.65752815    -0.78270
C629        C  0.84448173  0.57577946  0.65413030     1.02350
O630        O  0.87336864  0.53714821  0.59481319    -0.85590
O631        O  0.88468122  0.57896013  0.53944264    -0.82650
C632        C  0.89825367  0.60276183  0.52258680     0.97890
O633        O  0.90840719  0.62961198  0.53700478    -0.82680
O634        O  0.96329640  0.61657571  0.57806754    -0.85290
C635        C  0.98019858  0.60338906  0.60194556     1.02360
O636        O  0.96601030  0.59394859  0.62907255    -0.78100
O637        O  0.92602046  0.53878969  0.61352800    -0.78250
C638        C  0.90106263  0.52224129  0.60202365     1.02320
Cr639      Cr  0.86238815  0.58570146  0.58418355     1.93740
Cr640      Cr  0.91923209  0.63972083  0.58567470     1.93210
Cr641      Cr  0.91801568  0.58174228  0.63883380     1.39100
O642        O  0.90002076  0.60240386  0.60265851    -1.23340
O643        O  0.16285313  0.62032863  0.59037004    -0.85590
O644        O  0.15237395  0.56382108  0.62956589    -0.82640
C645        C  0.14575667  0.57372794  0.65943400     0.97870
O646        O  0.11816747  0.58868880  0.66587559    -0.82670
O647        O  0.06284687  0.62942195  0.65469865    -0.85320
C648        C  0.07308521  0.65915351  0.64785502     1.02400
O649        O  0.08753927  0.66557888  0.61992107    -0.78080
O650        O  0.12659136  0.65301081  0.56340931    -0.78270
C651        C  0.15611027  0.64767284  0.57512193     1.02350
O652        O  0.12516869  0.59023776  0.53491947    -0.85590
O653        O  0.11010326  0.53561067  0.57749795    -0.82650
C654        C  0.09680544  0.51935576  0.60185342     0.97890
O655        O  0.08650423  0.53460400  0.62821829    -0.82680
O656        O  0.03311182  0.57779460  0.61327468    -0.85290
C657        C  0.01719458  0.60256818  0.60051540     1.02360
O658        O  0.03264495  0.62867395  0.59015268    -0.78100
O659        O  0.07355271  0.61153240  0.53590808    -0.78250
C660        C  0.09831359  0.59954373  0.51945724     1.02320
Cr661      Cr  0.13447561  0.57915495  0.58427606     1.93740
Cr662      Cr  0.07685356  0.58388374  0.63730450     1.93210
Cr663      Cr  0.08141456  0.63650222  0.57908112     1.39100
O664        O  0.09747198  0.59971740  0.60024662    -1.23340
O665        O  0.93555929  0.37300287  0.34833915    -0.85590
O666        O  0.87730128  0.41004832  0.33813657    -0.82640
C667        C  0.84902185  0.42360791  0.34492370     0.97870
O668        O  0.84222755  0.43235759  0.37507577    -0.82670
O669        O  0.83696874  0.37373622  0.41377355    -0.85320
C670        C  0.84604316  0.34690955  0.42909473     1.02400
O671        O  0.87582761  0.34445470  0.44080497    -0.78080
O672        O  0.91400679  0.33474507  0.38286945    -0.78270
C673        C  0.92709445  0.34259915  0.35459344     1.02350
O674        O  0.96316787  0.42602974  0.38891995    -0.85590
O675        O  0.90610104  0.46519670  0.37627838    -0.82650
C676        C  0.89637564  0.47966061  0.40330725     0.97890
O677        O  0.88332896  0.46276048  0.42728508    -0.82680
O678        O  0.87266429  0.40758069  0.46840158    -0.85290
C679        C  0.90065793  0.40135743  0.48302689     1.02360
O680        O  0.92572196  0.38986857  0.46661501    -0.78100
O681        O  0.96693184  0.37522758  0.41179423    -0.78250
C682        C  0.98076073  0.40220258  0.40137212     1.02320
Cr683      Cr  0.91892492  0.41721116  0.36607996     1.93740
Cr684      Cr  0.86189804  0.41755475  0.41977002     1.93210
Cr685      Cr  0.91907292  0.36413309  0.42382370     1.39100
O686        O  0.90011224  0.39980805  0.40324106    -1.23340
O687        O  0.06115904  0.34811092  0.37190950    -0.85590
O688        O  0.11914161  0.33746585  0.40964774    -0.82640
C689        C  0.14664537  0.34381509  0.42493906     0.97870
O690        O  0.15322008  0.37364938  0.43495151    -0.82670
O691        O  0.16324048  0.41248097  0.37769849    -0.85320
C692        C  0.15569698  0.42633664  0.34969770     1.02400
O693        O  0.12591914  0.43723457  0.34431332    -0.78080
O694        O  0.08631947  0.38044306  0.33432384    -0.78270
C695        C  0.07196408  0.35275982  0.34202226     1.02350
O696        O  0.03488595  0.39044003  0.42429160    -0.85590
O697        O  0.09021700  0.37493082  0.46461868    -0.82650
C698        C  0.09892118  0.40192540  0.47965015     0.97890
O699        O  0.11129453  0.42652471  0.46319232    -0.82680
O700        O  0.12621485  0.46761036  0.40855618    -0.85290
C701        C  0.09932675  0.48268176  0.39928413     1.02360
O702        O  0.07485082  0.46644005  0.38627130    -0.78100
O703        O  0.03232248  0.41231524  0.37283541    -0.78250
C704        C  0.01794009  0.40313759  0.40011427     1.02320
Cr705      Cr  0.07799878  0.36582193  0.41626336     1.93740
Cr706      Cr  0.13539537  0.41878760  0.41942882     1.93210
Cr707      Cr  0.08118125  0.42247178  0.36248574     1.39100
O708        O  0.09812947  0.40250605  0.39943482    -1.23340
O709        O  0.84562082  0.37894475  0.56152865    -0.85590
O710        O  0.83599839  0.41653100  0.61965230    -0.82640
C711        C  0.84293340  0.43079464  0.64755414     0.97870
O712        O  0.87300927  0.44069153  0.65393968    -0.82670
O713        O  0.91153361  0.38432931  0.66606241    -0.85320
C714        C  0.92396928  0.35548515  0.66005661     1.02400
O715        O  0.93158159  0.34682350  0.63007236    -0.78080
O716        O  0.87357069  0.34059593  0.59023973    -0.78270
C717        C  0.84737411  0.34938208  0.57361942     1.02350
O718        O  0.89071223  0.42814634  0.53589125    -0.85590
O719        O  0.87480566  0.47012882  0.59096797    -0.82650
C720        C  0.90163837  0.48491903  0.60044465     0.97890
O721        O  0.92650041  0.46788579  0.61152902    -0.82680
O722        O  0.96644468  0.41155496  0.62659663    -0.85290
C723        C  0.98107288  0.39921648  0.60068988     1.02360
O724        O  0.96405157  0.38515935  0.57734580    -0.78100
O725        O  0.90876636  0.37506999  0.53562949    -0.78250
C726        C  0.90159455  0.40235542  0.52009438     1.02320
Cr727      Cr  0.86494538  0.42207948  0.57877774     1.93740
Cr728      Cr  0.91805297  0.42445053  0.63631020     1.93210
Cr729      Cr  0.91803555  0.36509739  0.58461309     1.39100
O730        O  0.90069652  0.40395565  0.59985989    -1.23340
O731        O  0.12257981  0.33799369  0.58610786    -0.85590
O732        O  0.06401045  0.34433766  0.62407819    -0.82640
C733        C  0.07474322  0.34808858  0.65404101     0.97870
O734        O  0.09024212  0.37501849  0.66197320    -0.82670
O735        O  0.12864426  0.43299751  0.65434375    -0.85320
C736        C  0.15872407  0.42641202  0.64508680     1.02400
O737        O  0.16491300  0.41498631  0.61583759    -0.78080
O738        O  0.15304709  0.37630683  0.55954407    -0.78270
C739        C  0.14976402  0.34651955  0.57120638     1.02350
O740        O  0.09046381  0.37475456  0.53198103    -0.85590
O741        O  0.03471728  0.38733712  0.57449759    -0.82650
C742        C  0.01867567  0.39883534  0.59995632     0.97890
O743        O  0.03440333  0.40775558  0.62672358    -0.82680
O744        O  0.07520642  0.46468242  0.61669107    -0.85290
C745        C  0.09776560  0.48199720  0.60162464     1.02360
O746        O  0.12341380  0.46796539  0.58845181    -0.78100
O747        O  0.10793136  0.42751431  0.53365678    -0.78250
C748        C  0.09802198  0.40211739  0.51693904     1.02320
Cr749      Cr  0.07959512  0.36435674  0.58045828     1.93740
Cr750      Cr  0.08334184  0.41865841  0.63659443     1.93210
Cr751      Cr  0.13413586  0.42017979  0.57623156     1.39100
O752        O  0.09881300  0.40150466  0.59771860    -1.23340
C753        C  0.78370259  0.47015170  0.27091084    -0.00400
C754        C  0.76905456  0.45300587  0.29871811    -0.12270
C755        C  0.78947143  0.43492673  0.32197762     0.01840
C756        C  0.82510070  0.43307334  0.31705379    -0.00480
C757        C  0.83874866  0.44580399  0.28663862    -0.12210
C758        C  0.81855686  0.46449135  0.26385665     0.01720
H759        H  0.74227940  0.45679766  0.30430684     0.14700
H760        H  0.86593907  0.44395561  0.28211935     0.14700
C761        C  0.83519919  0.47975213  0.23493998     0.36360
C762        C  0.77352687  0.41989611  0.35148754     0.36260
N763        N  0.84953713  0.49141764  0.21200299    -0.43990
N764        N  0.76077139  0.40774655  0.37510762    -0.43980
C765        C  0.81817933  0.56453264  0.32501903    -0.00400
C766        C  0.82438035  0.56902507  0.29005036    -0.12270
C767        C  0.80326896  0.55352429  0.26580530     0.01840
C768        C  0.77613295  0.53282837  0.27669850    -0.00480
C769        C  0.76616666  0.53408958  0.31082917    -0.12210
C770        C  0.78697104  0.54932192  0.33516123     0.01720
H771        H  0.84697145  0.58244704  0.28163271     0.14700
H772        H  0.74431444  0.51937351  0.31912287     0.14700
C773        C  0.77676339  0.54597348  0.37036631     0.36360
C774        C  0.81071425  0.55816499  0.23019889     0.36260
N775        N  0.76858363  0.54282798  0.39849551    -0.43990
N776        N  0.81683656  0.56262775  0.20172889    -0.43980
C777        C  0.77597332  0.27493313  0.47010429    -0.00400
C778        C  0.80931214  0.26454421  0.46341325    -0.12270
C779        C  0.83231734  0.28658596  0.44771561     0.01840
C780        C  0.82140247  0.31925085  0.43670525    -0.00480
C781        C  0.78650915  0.32685775  0.43782839    -0.12210
C782        C  0.76379856  0.30516498  0.45474249     0.01720
H783        H  0.81861648  0.24101495  0.47453022     0.14700
H784        H  0.77744813  0.35125492  0.42857836     0.14700
C785        C  0.72910559  0.31643963  0.45880166     0.36360
C786        C  0.86748865  0.27599662  0.44678444     0.36260
N787        N  0.70144337  0.32621005  0.46158975    -0.43990
N788        N  0.89563016  0.26730550  0.44704409    -0.43980
C789        C  0.77446864  0.27863455  0.53341949    -0.00400
C790        C  0.76499267  0.31258473  0.53799359    -0.12270
C791        C  0.78763216  0.33602431  0.55215232     0.01840
C792        C  0.81957594  0.32492850  0.56522564    -0.00480
C793        C  0.82631592  0.28986152  0.56595124    -0.12210
C794        C  0.80450408  0.26681559  0.54950965     0.01720
H795        H  0.74170401  0.32177143  0.52632221     0.14700
H796        H  0.85028211  0.28074787  0.57627159     0.14700
C797        C  0.81570979  0.23205749  0.54636336     0.36360
C798        C  0.77858073  0.37150090  0.54890290     0.36260
N799        N  0.82558602  0.20441293  0.54421518    -0.43990
N800        N  0.77135574  0.39977895  0.54501041    -0.43980
C801        C  0.03083608  0.28080279  0.27196757    -0.00400
C802        C  0.04122655  0.27008982  0.30433406    -0.12270
C803        C  0.05848550  0.29203561  0.32617321     0.01840
C804        C  0.06485644  0.32603659  0.31611701    -0.00480
C805        C  0.05989805  0.33473274  0.28167566    -0.12210
C806        C  0.04372918  0.31182616  0.25934035     0.01720
H807        H  0.03253509  0.24582226  0.31407475     0.14700
H808        H  0.06670892  0.35990258  0.27268899     0.14700
C809        C  0.04066500  0.32041506  0.22379672     0.36360
C810        C  0.06759249  0.27919457  0.35936892     0.36260
N811        N  0.03889265  0.32707080  0.19513063    -0.43990
N812        N  0.07480909  0.26826474  0.38575540    -0.43980
C813        C  0.96778729  0.27838791  0.27724664    -0.00400
C814        C  0.96049979  0.26388810  0.30919847    -0.12270
C815        C  0.94552345  0.28340888  0.33511483     0.01840
C816        C  0.93458945  0.31693656  0.32800610    -0.00480
C817        C  0.93673334  0.32894897  0.29445114    -0.12210
C818        C  0.95460847  0.31100113  0.26975499     0.01720
H819        H  0.97103191  0.23913291  0.31545912     0.14700
H820        H  0.92778025  0.35439041  0.28838910     0.14700
C821        C  0.96210961  0.32893193  0.23860992     0.36360
C822        C  0.94690296  0.27028430  0.36937259     0.36260
N823        N  0.96702023  0.34436070  0.21397190    -0.43990
N824        N  0.94911789  0.25948072  0.39669835    -0.43980
C825        C  0.77186562  0.46870132  0.72047846    -0.00400
C826        C  0.76065885  0.46227803  0.68717209    -0.12270
C827        C  0.78259212  0.44807998  0.66297673     0.01840
C828        C  0.81580801  0.43813172  0.67270681    -0.00480
C829        C  0.82476726  0.43946189  0.70729959    -0.12210
C830        C  0.80319620  0.45469076  0.73114962     0.01720
H831        H  0.73635402  0.47244137  0.67888149     0.14700
H832        H  0.84979313  0.43085350  0.71532315     0.14700
C833        C  0.81550093  0.45838757  0.76550918     0.36360
C834        C  0.77193606  0.44886818  0.62782825     0.36260
N835        N  0.82637549  0.46071671  0.79278623    -0.43990
N836        N  0.76316013  0.45027424  0.59973756    -0.43980
C837        C  0.77311459  0.53200976  0.72306892    -0.00400
C838        C  0.80566803  0.54045521  0.73492363    -0.12270
C839        C  0.82873568  0.55758948  0.71396577     0.01840
C840        C  0.81886677  0.56733637  0.68060464    -0.00480
C841        C  0.78451231  0.56403583  0.67121991    -0.12210
C842        C  0.76161483  0.54642432  0.69217743     0.01720
H843        H  0.81436779  0.53032502  0.75912942     0.14700
H844        H  0.77618130  0.57245545  0.64625688     0.14700
C845        C  0.72732519  0.54144131  0.68008312     0.36360
C846        C  0.86298704  0.56244063  0.72659348     0.36260
N847        N  0.69998811  0.53803771  0.66960482    -0.43990
N848        N  0.89045558  0.56603455  0.73670804    -0.43980
C849        C  0.72291090  0.46902002  0.22475455    -0.00400
C850        C  0.69075102  0.46027124  0.23757018    -0.12270
C851        C  0.66604223  0.44572078  0.21642348     0.01840
C852        C  0.67472273  0.43639515  0.18284397    -0.00480
C853        C  0.70875011  0.43969798  0.17229092    -0.12210
C854        C  0.73267985  0.45641306  0.19267514     0.01720
H855        H  0.68330270  0.46931250  0.26247854     0.14700
H856        H  0.71590893  0.43201958  0.14677000     0.14700
C857        C  0.76561590  0.46381394  0.17828228     0.36360
C858        C  0.63114806  0.44663841  0.22786788     0.36260
N859        N  0.79170728  0.46962867  0.16593963    -0.43990
N860        N  0.60323056  0.44857938  0.23705923    -0.43980
C861        C  0.68293514  0.43301231  0.82692158    -0.00400
C862        C  0.71300420  0.44743328  0.83947108    -0.12270
C863        C  0.73476307  0.46546076  0.81783750     0.01840
C864        C  0.72702957  0.46834061  0.78274448    -0.00480
C865        C  0.70041171  0.44859269  0.76945473    -0.12210
C866        C  0.67770525  0.43180503  0.79134687     0.01720
H867        H  0.71764045  0.44785123  0.86670611     0.14700
H868        H  0.69491505  0.44967304  0.74242883     0.14700
C869        C  0.64820061  0.41533880  0.77690484     0.36360
C870        C  0.76264865  0.48385313  0.83310903     0.36260
N871        N  0.62458133  0.40217081  0.76521605    -0.43990
N872        N  0.78475555  0.49855595  0.84588239    -0.43980
C873        C  0.67707072  0.56678062  0.82069979    -0.00400
C874        C  0.66335071  0.55204078  0.79107739    -0.12270
C875        C  0.68383138  0.53403963  0.76854529     0.01840
C876        C  0.71894877  0.53090211  0.77516666    -0.00480
C877        C  0.73360142  0.55133952  0.80044494    -0.12210
C878        C  0.71290215  0.56935844  0.82331760     0.01720
H879        H  0.63602959  0.55188810  0.78690048     0.14700
H880        H  0.76093469  0.55068460  0.80430116     0.14700
C881        C  0.72933657  0.58923092  0.84923464     0.36360
C882        C  0.66740793  0.51603233  0.74105505     0.36260
N883        N  0.74361971  0.60565652  0.86899369    -0.43990
N884        N  0.65366469  0.50162863  0.71935213    -0.43980
C885        C  0.72183776  0.53245974  0.22444030    -0.00400
C886        C  0.73246567  0.54349681  0.19228281    -0.12270
C887        C  0.71043276  0.56148338  0.17085700     0.01840
C888        C  0.67654223  0.56804284  0.18126590    -0.00480
C889        C  0.66764411  0.56153097  0.21530477    -0.12210
C890        C  0.69025085  0.54414190  0.23704726     0.01720
H891        H  0.75682826  0.53514559  0.18248759     0.14700
H892        H  0.64218466  0.56748186  0.22413857     0.14700
C893        C  0.67963638  0.53657333  0.27137171     0.36360
C894        C  0.72272025  0.57095760  0.13749626     0.36260
N895        N  0.67107920  0.53059690  0.29892302    -0.43990
N896        N  0.73264958  0.57851380  0.11080469    -0.43980
C897        C  0.46671289  0.27359556  0.78190491    -0.00400
C898        C  0.46523455  0.26365896  0.81627887    -0.12270
C899        C  0.44988098  0.28452743  0.84074521     0.01840
C900        C  0.43410684  0.31516574  0.83052099    -0.00480
C901        C  0.43124026  0.32241790  0.79567623    -0.12210
C902        C  0.44742210  0.30208815  0.77138456     0.01720
H903        H  0.47985106  0.24178927  0.82468235     0.14700
H904        H  0.41854956  0.34560956  0.78758548     0.14700
C905        C  0.44644802  0.31348843  0.73654068     0.36360
C906        C  0.45518549  0.27640823  0.87622977     0.36260
N907        N  0.44469748  0.32409210  0.70910537    -0.43990
N908        N  0.45989690  0.27002969  0.90462967    -0.43980
C909        C  0.56291437  0.32845854  0.81486448    -0.00400
C910        C  0.56545681  0.29354736  0.82161569    -0.12270
C911        C  0.54874701  0.26977626  0.80109003     0.01840
C912        C  0.52911757  0.28094767  0.77304934    -0.00480
C913        C  0.53105836  0.31536079  0.76344400    -0.12210
C914        C  0.54701565  0.33930712  0.78446527     0.01720
H915        H  0.57834540  0.28500575  0.84455908     0.14700
H916        H  0.51631683  0.32423841  0.74182378     0.14700
C917        C  0.54227918  0.37495168  0.77679569     0.36360
C918        C  0.54965621  0.23476015  0.81182956     0.36260
N919        N  0.53813673  0.40350380  0.77083696    -0.43990
N920        N  0.55151675  0.20715187  0.82188830    -0.43980
C921        C  0.27551462  0.46770633  0.77853108    -0.00400
C922        C  0.30705624  0.45777125  0.76483619    -0.12270
C923        C  0.33167201  0.44173744  0.78535084     0.01840
C924        C  0.32384975  0.43378139  0.81956785    -0.00480
C925        C  0.29051589  0.43892033  0.83119945    -0.12210
C926        C  0.26679658  0.45656139  0.81155707     0.01720
H927        H  0.31397799  0.46621444  0.73948288     0.14700
H928        H  0.28391178  0.43208334  0.85715148     0.14700
C929        C  0.23520807  0.46593824  0.82773833     0.36360
C930        C  0.36569621  0.43790628  0.77202285     0.36260
N931        N  0.20998858  0.47251261  0.84144693    -0.43990
N932        N  0.39304203  0.43514596  0.76141694    -0.43980
C933        C  0.27396648  0.53113655  0.77597144    -0.00400
C934        C  0.30706086  0.53809868  0.76429643    -0.12270
C935        C  0.33084008  0.55467651  0.78508617     0.01840
C936        C  0.32105267  0.56592263  0.81777696    -0.00480
C937        C  0.28641068  0.56411553  0.82677578    -0.12210
C938        C  0.26278796  0.54732330  0.80588522     0.01720
H939        H  0.31562454  0.52677861  0.74067076     0.14700
H940        H  0.27812945  0.57416790  0.85108717     0.14700
C941        C  0.22760642  0.54628941  0.81620431     0.36360
C942        C  0.36586856  0.55539362  0.77400532     0.36260
N943        N  0.19939068  0.54633649  0.82467554    -0.43990
N944        N  0.39393237  0.55556854  0.76504095    -0.43980
C945        C  0.22657747  0.46632245  0.71923028    -0.00400
C946        C  0.23390600  0.47112342  0.68443570    -0.12270
C947        C  0.21360111  0.45627486  0.65917655     0.01840
C948        C  0.18675506  0.43451316  0.66871023    -0.00480
C949        C  0.18343927  0.42503506  0.70291391    -0.12210
C950        C  0.20336039  0.44036348  0.72816617     0.01720
H951        H  0.25236600  0.49025563  0.67702702     0.14700
H952        H  0.16365958  0.40716697  0.71015784     0.14700
C953        C  0.19810998  0.42925730  0.76264910     0.36360
C954        C  0.21754352  0.46778969  0.62444871     0.36260
N955        N  0.19277886  0.41813357  0.78940004    -0.43990
N956        N  0.22041113  0.47732496  0.59670168    -0.43980
C957        C  0.16905513  0.56413162  0.68745554    -0.00400
C958        C  0.15555865  0.54616399  0.71515271    -0.12270
C959        C  0.17689581  0.52748245  0.73679681     0.01840
C960        C  0.21240377  0.52704468  0.73110787    -0.00480
C961        C  0.22616528  0.54917184  0.70665265    -0.12210
C962        C  0.20472939  0.56737525  0.68457589     0.01720
H963        H  0.12815798  0.54407452  0.71800068     0.14700
H964        H  0.25344777  0.54938838  0.70237862     0.14700
C965        C  0.21988687  0.58827112  0.65850898     0.36360
C966        C  0.16142858  0.50661769  0.76277900     0.36260
N967        N  0.23232802  0.60535510  0.63801367    -0.43990
N968        N  0.14865621  0.49015833  0.78361187    -0.43980
C969        C  0.77178204  0.72030329  0.46905530    -0.00400
C970        C  0.76123899  0.68612803  0.46932531    -0.12270
C971        C  0.78099702  0.66089890  0.45376708     0.01840
C972        C  0.81106846  0.67021846  0.43649869    -0.00480
C973        C  0.81821913  0.70480334  0.43148923    -0.12210
C974        C  0.79889435  0.72986609  0.44757388     0.01720
H975        H  0.73999069  0.67861459  0.48524710     0.14700
H976        H  0.84072440  0.71215650  0.41726246     0.14700
C977        C  0.80958137  0.76472805  0.44377303     0.36360
C978        C  0.77245240  0.62571760  0.46002538     0.36260
N979        N  0.81877110  0.79242130  0.43981804    -0.43990
N980        N  0.76571122  0.59754113  0.46529563    -0.43980
C981        C  0.78096865  0.73043737  0.53120974    -0.00400
C982        C  0.76759291  0.70232791  0.54875464    -0.12270
C983        C  0.78896344  0.68051061  0.56726777     0.01840
C984        C  0.82429659  0.68722019  0.56903073    -0.00480
C985        C  0.83643191  0.71833785  0.55641981    -0.12210
C986        C  0.81507909  0.73990154  0.53752263     0.01720
H987        H  0.74115675  0.69531452  0.54492024     0.14700
H988        H  0.86328702  0.72442337  0.55862337     0.14700
C989        C  0.82947833  0.77057753  0.52355653     0.36360
C990        C  0.77433956  0.65040155  0.58246720     0.36260
N991        N  0.84192895  0.79518250  0.51323476    -0.43990
N992        N  0.76257424  0.62629727  0.59464717    -0.43980
C993        C  0.46477051  0.22466534  0.72341253    -0.00400
C994        C  0.44932843  0.19610582  0.73849396    -0.12270
C995        C  0.43249373  0.17173772  0.71832614     0.01840
C996        C  0.42952836  0.17709476  0.68281787    -0.00480
C997        C  0.43871861  0.20908118  0.66965493    -0.12210
C998        C  0.45692843  0.23232465  0.68919225     0.01720
H999        H  0.45384425  0.19083861  0.76519857     0.14700
H1000       H  0.43490122  0.21467243  0.64285347     0.14700
C1001       C  0.47093980  0.26157035  0.67189599     0.36360
C1002       C  0.42146750  0.14051301  0.73419820     0.36260
N1003       N  0.48215097  0.28455744  0.65725421    -0.43990
N1004       N  0.41263555  0.11548608  0.74699380    -0.43980
C1005       C  0.72376586  0.22200604  0.53494250    -0.00400
C1006       C  0.73691527  0.19187600  0.54900820    -0.12270
C1007       C  0.71583908  0.16909096  0.56654762     0.01840
C1008       C  0.68081217  0.17649076  0.56986135    -0.00480
C1009       C  0.66930111  0.20927535  0.56096197    -0.12210
C1010       C  0.69051139  0.23203484  0.54371331     0.01720
H1011       H  0.76259241  0.18420430  0.54312628     0.14700
H1012       H  0.64285166  0.21616358  0.56493567     0.14700
C1013       C  0.67644521  0.26398998  0.53216909     0.36360
C1014       C  0.73024117  0.13714533  0.57766141     0.36260
N1015       N  0.66493059  0.28954486  0.52305431    -0.43990
N1016       N  0.74191966  0.11162685  0.58667915    -0.43980
C1017       C  0.52843026  0.22240962  0.72406679    -0.00400
C1018       C  0.54384295  0.23718562  0.69530684    -0.12270
C1019       C  0.56066546  0.21683160  0.67108593     0.01840
C1020       C  0.56347872  0.18136356  0.67662211    -0.00480
C1021       C  0.55375387  0.16832375  0.70850256    -0.12210
C1022       C  0.53571807  0.18807361  0.73167472     0.01720
H1023       H  0.53956002  0.26387789  0.68990959     0.14700
H1024       H  0.55731305  0.14152768  0.71417857     0.14700
C1025       C  0.52162372  0.17097238  0.76100143     0.36360
C1026       C  0.57194469  0.23250328  0.63983552     0.36260
N1027       N  0.51038910  0.15648788  0.78408424    -0.43990
N1028       N  0.58098050  0.24514053  0.61478999    -0.43980
C1029       C  0.68628988  0.82911081  0.56584941    -0.00400
C1030       C  0.71549910  0.84136747  0.54949345    -0.12270
C1031       C  0.73645217  0.81921899  0.53124554     0.01840
C1032       C  0.72847587  0.78424019  0.52993989    -0.00480
C1033       C  0.70309862  0.77143439  0.55147049    -0.12210
C1034       C  0.68146132  0.79364186  0.56888819     0.01720
H1035       H  0.71988906  0.86856108  0.54778142     0.14700
H1036       H  0.69769836  0.74441697  0.55163064     0.14700
C1037       C  0.65319555  0.77955294  0.58770387     0.36360
C1038       C  0.76367777  0.83359329  0.51125006     0.36260
N1039       N  0.63057724  0.76813274  0.60272750    -0.43990
N1040       N  0.78524832  0.84571053  0.49527249    -0.43980
C1041       C  0.67984721  0.17798456  0.43430479    -0.00400
C1042       C  0.71137758  0.16482211  0.44553147    -0.12270
C1043       C  0.73451027  0.18509779  0.46346120     0.01840
C1044       C  0.72579718  0.21883908  0.47148568    -0.00480
C1045       C  0.69721804  0.23331215  0.45571924    -0.12210
C1046       C  0.67483017  0.21348251  0.43633890     0.01720
H1047       H  0.71716584  0.13805880  0.44220390     0.14700
H1048       H  0.69068081  0.25947268  0.46082629     0.14700
C1049       C  0.64707040  0.23060837  0.41973971     0.36360
C1050       C  0.76606052  0.17018630  0.47505944     0.36260
N1051       N  0.62609839  0.24606661  0.40603328    -0.43990
N1052       N  0.79141646  0.15812427  0.48409482    -0.43980
C1053       C  0.66862674  0.81177151  0.43215440    -0.00400
C1054       C  0.65757449  0.78298323  0.45019499    -0.12270
C1055       C  0.68104937  0.76271646  0.46813592     0.01840
C1056       C  0.71589710  0.77182316  0.46880213    -0.00480
C1057       C  0.72713251  0.79725506  0.44651213    -0.12210
C1058       C  0.70391163  0.81687848  0.42793367     0.01720
H1059       H  0.63052848  0.77798968  0.45269335     0.14700
H1060       H  0.75366810  0.80425527  0.44610866     0.14700
C1061       C  0.71694807  0.84282080  0.40551023     0.36360
C1062       C  0.66854479  0.73412643  0.48750771     0.36260
N1063       N  0.72783506  0.86296888  0.38702138    -0.43990
N1064       N  0.65840370  0.71109664  0.50283823    -0.43980
C1065       C  0.46367007  0.77886435  0.27657028    -0.00400
C1066       C  0.45720584  0.76475395  0.30895125    -0.12270
C1067       C  0.44066861  0.78378566  0.33438834     0.01840
C1068       C  0.42886526  0.81692428  0.32689570    -0.00480
C1069       C  0.43047830  0.82841044  0.29311740    -0.12210
C1070       C  0.44828307  0.81030169  0.26832549     0.01720
H1071       H  0.46857279  0.74049725  0.31562302     0.14700
H1072       H  0.42065105  0.85345577  0.28677932     0.14700
C1073       C  0.45342280  0.82719419  0.23619763     0.36360
C1074       C  0.43995557  0.77040982  0.36862291     0.36260
N1075       N  0.45665580  0.84266611  0.21133096    -0.43990
N1076       N  0.43957357  0.75974174  0.39610727    -0.43980
C1077       C  0.42981967  0.67402184  0.18436543    -0.00400
C1078       C  0.42889266  0.70811084  0.17386660    -0.12270
C1079       C  0.44577470  0.73328821  0.19231671     0.01840
C1080       C  0.46256291  0.72475567  0.22298516    -0.00480
C1081       C  0.45807179  0.69189459  0.23643340    -0.12210
C1082       C  0.44307952  0.66612022  0.21685575     0.01720
H1083       H  0.41816414  0.71449080  0.14917128     0.14700
H1084       H  0.47057973  0.68514908  0.26010896     0.14700
C1085       C  0.44670062  0.63142241  0.22839096     0.36360
C1086       C  0.44961175  0.76595444  0.17608670     0.36260
N1087       N  0.45020696  0.60365995  0.23762591    -0.43990
N1088       N  0.45257963  0.79123265  0.16125885    -0.43980
C1089       C  0.52712770  0.78117798  0.27149531    -0.00400
C1090       C  0.53789488  0.76902517  0.30327491    -0.12270
C1091       C  0.55577916  0.78997317  0.32560603     0.01840
C1092       C  0.56249830  0.82410234  0.31633225    -0.00480
C1093       C  0.55721275  0.83407235  0.28233571    -0.12210
C1094       C  0.54006286  0.81245617  0.25967616     0.01720
H1095       H  0.52914815  0.74449751  0.31222279     0.14700
H1096       H  0.56403285  0.85952708  0.27416065     0.14700
C1097       C  0.53484629  0.82334462  0.22499669     0.36360
C1098       C  0.56485633  0.77637293  0.35862186     0.36260
N1099       N  0.53137035  0.83198467  0.19702049    -0.43990
N1100       N  0.57212783  0.76538374  0.38501546    -0.43980
C1101       C  0.56072829  0.68725713  0.17024531    -0.00400
C1102       C  0.56070879  0.68046251  0.20540401    -0.12270
C1103       C  0.54292823  0.70138479  0.22811527     0.01840
C1104       C  0.52547411  0.73035368  0.21584290    -0.00480
C1105       C  0.52989430  0.73977246  0.18166174    -0.12210
C1106       C  0.54601717  0.71797696  0.15856260     0.01720
H1107       H  0.57225985  0.65719141  0.21483081     0.14700
H1108       H  0.51707907  0.76218947  0.17205085     0.14700
C1109       C  0.54189460  0.72525083  0.12276283     0.36360
C1110       C  0.54015201  0.69044186  0.26308309     0.36260
N1111       N  0.53769328  0.73108605  0.09416906    -0.43990
N1112       N  0.53805827  0.68098541  0.29092529    -0.43980
C1113       C  0.31152013  0.82947932  0.43929415    -0.00400
C1114       C  0.31794220  0.79447687  0.43644946    -0.12270
C1115       C  0.29716228  0.77079472  0.45298413     0.01840
C1116       C  0.26959015  0.78229558  0.47281042    -0.00480
C1117       C  0.26025071  0.81670918  0.47117143    -0.12210
C1118       C  0.28121683  0.84050592  0.45509729     0.01720
H1119       H  0.34075703  0.78579930  0.42355571     0.14700
H1120       H  0.23886240  0.82563493  0.48609764     0.14700
C1121       C  0.27352890  0.87615566  0.45958403     0.36360
C1122       C  0.30699287  0.73544672  0.45224768     0.36260
N1123       N  0.26749327  0.90470050  0.46347788    -0.43990
N1124       N  0.31536880  0.70723911  0.45134550    -0.43980
C1125       C  0.27919231  0.77368952  0.53494001    -0.00400
C1126       C  0.31341220  0.76293111  0.53615867    -0.12270
C1127       C  0.33859111  0.78289343  0.55184664     0.01840
C1128       C  0.32927522  0.81333460  0.56832554    -0.00480
C1129       C  0.29463925  0.82126026  0.57146679    -0.12210
C1130       C  0.26969336  0.80209061  0.55478230     0.01720
H1131       H  0.32118609  0.74117351  0.52117674     0.14700
H1132       H  0.28725744  0.84435902  0.58462709     0.14700
C1133       C  0.23542246  0.81498865  0.55580626     0.36360
C1134       C  0.37388738  0.77417540  0.54637050     0.36260
N1135       N  0.20873348  0.82726448  0.55781317    -0.43990
N1136       N  0.40217470  0.76740880  0.54162004    -0.43980
C1137       C  0.22313423  0.72197869  0.47158878    -0.00400
C1138       C  0.23400626  0.68854627  0.46502454    -0.12270
C1139       C  0.21320173  0.66548493  0.44758780     0.01840
C1140       C  0.18062761  0.67583624  0.43635343    -0.00480
C1141       C  0.17198920  0.71052954  0.43849454    -0.12210
C1142       C  0.19341286  0.73374272  0.45522371     0.01720
H1143       H  0.25728733  0.67930885  0.47662036     0.14700
H1144       H  0.14774523  0.71922026  0.42844370     0.14700
C1145       C  0.18395885  0.76916178  0.45598280     0.36360
C1146       C  0.22440048  0.63057984  0.44519720     0.36260
N1147       N  0.17644109  0.79763190  0.45586090    -0.43990
N1148       N  0.23343631  0.60262411  0.44329209    -0.43980
C1149       C  0.18240684  0.67371993  0.56872559    -0.00400
C1150       C  0.17099965  0.70726580  0.56502688    -0.12270
C1151       C  0.19011017  0.73101751  0.54704341     0.01840
C1152       C  0.22287725  0.72226535  0.53516969    -0.00480
C1153       C  0.23689217  0.69079433  0.54489275    -0.12210
C1154       C  0.21636757  0.66576645  0.55997967     0.01720
H1155       H  0.14516878  0.71378802  0.57240932     0.14700
H1156       H  0.26210101  0.68394896  0.53598769     0.14700
C1157       C  0.22899731  0.63129859  0.56082389     0.36360
C1158       C  0.17271365  0.76167602  0.53681036     0.36260
N1159       N  0.23914793  0.60365369  0.56079362    -0.43990
N1160       N  0.15704256  0.78542004  0.52909469    -0.43980
C1161       C  0.47092181  0.73008017  0.78681229    -0.00400
C1162       C  0.45017118  0.70462367  0.77286643    -0.12270
C1163       C  0.43116921  0.68300123  0.79398418     0.01840
C1164       C  0.43240177  0.68707096  0.82968449    -0.00480
C1165       C  0.44881029  0.71578897  0.84304563    -0.12210
C1166       C  0.46805892  0.73721516  0.82194402     0.01720
H1167       H  0.45118060  0.69961161  0.74578833     0.14700
H1168       H  0.44924374  0.71975798  0.87036077     0.14700
C1169       C  0.48668570  0.76472563  0.83748371     0.36360
C1170       C  0.41163890  0.65607376  0.77851408     0.36260
N1171       N  0.50147424  0.78663248  0.85042798    -0.43990
N1172       N  0.39574965  0.63475876  0.76591190    -0.43980
C1173       C  0.46946042  0.78319499  0.73347562    -0.00400
C1174       C  0.45265504  0.76945436  0.70514278    -0.12270
C1175       C  0.43539442  0.79068895  0.68233914     0.01840
C1176       C  0.43417393  0.82601178  0.68852154    -0.00480
C1177       C  0.44529531  0.83843717  0.72005770    -0.12210
C1178       C  0.46296618  0.81722921  0.74258483     0.01720
H1179       H  0.45662156  0.74297842  0.69855374     0.14700
H1180       H  0.44318237  0.86535105  0.72570497     0.14700
C1181       C  0.47609390  0.83171399  0.77359837     0.36360
C1182       C  0.42110686  0.77598548  0.65184712     0.36260
N1183       N  0.48584235  0.84409987  0.79845930    -0.43990
N1184       N  0.40960011  0.76409068  0.62749149    -0.43980
C1185       C  0.56764794  0.67289317  0.81510315    -0.00400
C1186       C  0.55254526  0.66275662  0.78436594    -0.12270
C1187       C  0.53524917  0.68657292  0.76412074     0.01840
C1188       C  0.53281806  0.72066770  0.77501811    -0.00480
C1189       C  0.55307274  0.73147884  0.80219603    -0.12210
C1190       C  0.57047983  0.70794343  0.82231384     0.01720
H1191       H  0.55120773  0.63598340  0.77794493     0.14700
H1192       H  0.55199934  0.75760512  0.81037764     0.14700
C1193       C  0.58866085  0.72031617  0.85176477     0.36360
C1194       C  0.51757753  0.67499460  0.73406719     0.36260
N1195       N  0.60314079  0.73067918  0.87521974    -0.43990
N1196       N  0.50351349  0.66569224  0.70990707    -0.43980
C1197       C  0.56729412  0.81504042  0.67413442    -0.00400
C1198       C  0.57092593  0.82201784  0.70898140    -0.12270
C1199       C  0.55354266  0.80286875  0.73354148     0.01840
C1200       C  0.53191369  0.77607965  0.72334483    -0.00480
C1201       C  0.53222157  0.76615796  0.68894094    -0.12210
C1202       C  0.54919283  0.78564198  0.66424802     0.01720
H1203       H  0.58542267  0.84412597  0.71689748     0.14700
H1204       H  0.51611265  0.74532077  0.68078376     0.14700
C1205       C  0.54371312  0.77752029  0.62882761     0.36360
C1206       C  0.55655437  0.81317739  0.76859402     0.36260
N1207       N  0.53907458  0.77115546  0.60044434    -0.43990
N1208       N  0.55984929  0.82205018  0.79647700    -0.43980
C1209       C  0.32925701  0.06721077  0.31551827    -0.00400
C1210       C  0.29461676  0.07157843  0.32247700    -0.12270
C1211       C  0.26979299  0.05526259  0.30296902     0.01840
C1212       C  0.27956946  0.03475986  0.27513615    -0.00480
C1213       C  0.31383169  0.03570143  0.26467313    -0.12210
C1214       C  0.33891256  0.05050518  0.28530147     0.01720
H1215       H  0.28705224  0.08527816  0.34521370     0.14700
H1216       H  0.32168443  0.02073548  0.24291881     0.14700
C1217       C  0.37416300  0.04344378  0.27765386     0.36360
C1218       C  0.23531035  0.05794978  0.31487395     0.36260
N1219       N  0.40234001  0.03724887  0.27165335    -0.43990
N1220       N  0.20862673  0.06193024  0.32662519    -0.43980
C1221       C  0.27292012  0.97182289  0.28198825    -0.00400
C1222       C  0.30210856  0.95647219  0.26820081    -0.12270
C1223       C  0.32486673  0.93831556  0.28892309     0.01840
C1224       C  0.31833940  0.93547380  0.32419285    -0.00480
C1225       C  0.28634648  0.94597466  0.33647794    -0.12210
C1226       C  0.26361200  0.96383072  0.31561186     0.01720
H1227       H  0.30916249  0.96181393  0.24214188     0.14700
H1228       H  0.28000634  0.94234700  0.36310656     0.14700
C1229       C  0.23194822  0.97564199  0.32994372     0.36360
C1230       C  0.35598305  0.92596315  0.27380955     0.36260
N1231       N  0.20644658  0.98457943  0.34164384    -0.43990
N1232       N  0.38083727  0.91598501  0.26156369    -0.43980
C1233       C  0.31593995  0.32472459  0.06797235    -0.00400
C1234       C  0.32662449  0.29196379  0.05863944    -0.12270
C1235       C  0.30509883  0.27017262  0.04063266     0.01840
C1236       C  0.27207392  0.28105795  0.03144711    -0.00480
C1237       C  0.25953194  0.31132990  0.04559038    -0.12210
C1238       C  0.28114466  0.33328259  0.06377492     0.01720
H1239       H  0.35279065  0.28424139  0.06315248     0.14700
H1240       H  0.23379165  0.31936921  0.03969926     0.14700
C1241       C  0.26760393  0.36548541  0.07498084     0.36360
C1242       C  0.31892869  0.23818513  0.02921797     0.36260
N1243       N  0.25665107  0.39123771  0.08407950    -0.43990
N1244       N  0.33095319  0.21281182  0.02044927    -0.43980
C1245       C  0.31574427  0.32637205  0.93404438    -0.00400
C1246       C  0.28301715  0.33809766  0.94208628    -0.12270
C1247       C  0.25999087  0.31689342  0.95899158     0.01840
C1248       C  0.26975375  0.28350524  0.96793255    -0.00480
C1249       C  0.29982849  0.27008836  0.95436877    -0.12210
C1250       C  0.32306755  0.29132604  0.93772731     0.01720
H1251       H  0.27657019  0.36466678  0.93826626     0.14700
H1252       H  0.30674914  0.24394753  0.95980078     0.14700
C1253       C  0.35487349  0.27689458  0.92636909     0.36360
C1254       C  0.22795485  0.33110416  0.96991162     0.36260
N1255       N  0.38024752  0.26508847  0.91722604    -0.43990
N1256       N  0.20241687  0.34297020  0.97851237    -0.43980
C1257       C  0.28089380  0.47029616  0.22814649    -0.00400
C1258       C  0.31563939  0.47096776  0.23694378    -0.12270
C1259       C  0.33993356  0.45413148  0.21704959     0.01840
C1260       C  0.32926367  0.43516245  0.18853850    -0.00480
C1261       C  0.29431801  0.43036899  0.18293970    -0.12210
C1262       C  0.27009889  0.44756348  0.20254878     0.01720
H1263       H  0.32422350  0.48786916  0.25696168     0.14700
H1264       H  0.28596686  0.41507468  0.16153506     0.14700
C1265       C  0.23472377  0.44296166  0.19394843     0.36360
C1266       C  0.37554100  0.46071379  0.22356312     0.36260
N1267       N  0.20667243  0.43814087  0.18626775    -0.43990
N1268       N  0.40405758  0.46624943  0.22858915    -0.43980
C1269       C  0.22520959  0.46892742  0.27931027    -0.00400
C1270       C  0.19410887  0.45610458  0.26755977    -0.12270
C1271       C  0.17258974  0.43804824  0.28915902     0.01840
C1272       C  0.18193995  0.43317510  0.32359310    -0.00480
C1273       C  0.21539812  0.44094184  0.33368020    -0.12210
C1274       C  0.23724175  0.45850246  0.31151138     0.01720
H1275       H  0.18473946  0.46358035  0.24273557     0.14700
H1276       H  0.22351513  0.43596163  0.35961488     0.14700
C1277       C  0.27111683  0.46694428  0.32286810     0.36360
C1278       C  0.13997807  0.42727190  0.27590421     0.36260
N1279       N  0.29848135  0.47297962  0.33201858    -0.43990
N1280       N  0.11388337  0.41878095  0.26514231    -0.43980
C1281       C  0.27013031  0.53229621  0.21887115    -0.00400
C1282       C  0.29833081  0.55027123  0.23117304    -0.12270
C1283       C  0.31974736  0.56775717  0.20884298     0.01840
C1284       C  0.31305746  0.56720144  0.17353129    -0.00480
C1285       C  0.28176439  0.55428932  0.16211430    -0.12210
C1286       C  0.26012197  0.53708602  0.18468317     0.01720
H1287       H  0.30596686  0.54736753  0.25747695     0.14700
H1288       H  0.27560115  0.55492567  0.13519934     0.14700
C1289       C  0.22890687  0.52274745  0.17175113     0.36360
C1290       C  0.34931627  0.58451028  0.22269260     0.36260
N1291       N  0.20367165  0.51186879  0.16111772    -0.43990
N1292       N  0.37268357  0.59814899  0.23427842    -0.43980
C1293       C  0.21872227  0.53198987  0.27427507    -0.00400
C1294       C  0.18487932  0.53590929  0.26319873    -0.12270
C1295       C  0.16063535  0.55222501  0.28368360     0.01840
C1296       C  0.17069265  0.56658526  0.31507059    -0.00480
C1297       C  0.20551341  0.56722032  0.32333576    -0.12210
C1298       C  0.22946493  0.55005967  0.30334829     0.01720
H1299       H  0.17646295  0.52266615  0.24053328     0.14700
H1300       H  0.21371120  0.57898629  0.34692743     0.14700
C1301       C  0.26436182  0.54942963  0.31482252     0.36360
C1302       C  0.12523506  0.54934965  0.27417256     0.36260
N1303       N  0.29223027  0.54967517  0.32447083    -0.43990
N1304       N  0.09689024  0.54654764  0.26654984    -0.43980
C1305       C  0.27479853  0.22354479  0.46702685    -0.00400
C1306       C  0.30820506  0.23353123  0.45989743    -0.12270
C1307       C  0.33070593  0.21156920  0.44346439     0.01840
C1308       C  0.31974554  0.17856724  0.43379320    -0.00480
C1309       C  0.28484710  0.17088725  0.43593998    -0.12210
C1310       C  0.26228280  0.19328215  0.45230388     0.01720
H1311       H  0.31791049  0.25698364  0.47060791     0.14700
H1312       H  0.27569781  0.14626214  0.42759496     0.14700
C1313       C  0.22722946  0.18319793  0.45656370     0.36360
C1314       C  0.36553783  0.22282565  0.43952566     0.36260
N1315       N  0.19910965  0.17502956  0.45982016    -0.43990
N1316       N  0.39344278  0.23188001  0.43671420    -0.43980
C1317       C  0.21616773  0.27215731  0.46796782    -0.00400
C1318       C  0.18188103  0.26305081  0.46378667    -0.12270
C1319       C  0.15875473  0.28525528  0.44827576     0.01840
C1320       C  0.17047749  0.31611465  0.43408817    -0.00480
C1321       C  0.20563159  0.32285646  0.43397520    -0.12210
C1322       C  0.22847777  0.30131230  0.45102250     0.01720
H1323       H  0.17219738  0.24076488  0.47678828     0.14700
H1324       H  0.21490664  0.34641240  0.42294757     0.14700
C1325       C  0.26359422  0.31171182  0.45397631     0.36360
C1326       C  0.12292976  0.27846755  0.45296754     0.36260
N1327       N  0.29165900  0.32040104  0.45626574    -0.43990
N1328       N  0.09436565  0.27311591  0.45782321    -0.43980
C1329       C  0.27397686  0.22200735  0.53043053    -0.00400
C1330       C  0.26443064  0.18842022  0.53667520    -0.12270
C1331       C  0.28704737  0.16559705  0.55172171     0.01840
C1332       C  0.31919314  0.17711670  0.56393646    -0.00480
C1333       C  0.32607653  0.21223094  0.56288353    -0.12210
C1334       C  0.30396373  0.23461608  0.54567992     0.01720
H1335       H  0.24119410  0.17876723  0.52531536     0.14700
H1336       H  0.35009665  0.22175129  0.57260711     0.14700
C1337       C  0.31387541  0.26969320  0.54156151     0.36360
C1338       C  0.27790335  0.13007710  0.54947019     0.36260
N1339       N  0.32196580  0.29782339  0.53842152    -0.43990
N1340       N  0.27070681  0.10174199  0.54610434    -0.43980
C1341       C  0.17695795  0.32123301  0.56411226    -0.00400
C1342       C  0.16885018  0.28641450  0.56302633    -0.12270
C1343       C  0.19069735  0.26328868  0.54687203     0.01840
C1344       C  0.22064511  0.27520172  0.53110875    -0.00480
C1345       C  0.23132261  0.30854658  0.53736130    -0.12210
C1346       C  0.20995752  0.33160088  0.55381458     0.01720
H1347       H  0.14432178  0.27766962  0.57216338     0.14700
H1348       H  0.25473172  0.31768334  0.52599463     0.14700
C1349       C  0.22183114  0.36620014  0.55748165     0.36360
C1350       C  0.18047430  0.22817162  0.54403509     0.36260
N1351       N  0.23139057  0.39390168  0.56026158    -0.43990
N1352       N  0.17223792  0.20000371  0.54184865    -0.43980
C1353       C  0.43287787  0.31641535  0.17666604    -0.00400
C1354       C  0.44239736  0.32766092  0.20917691    -0.12270
C1355       C  0.46032397  0.30651226  0.23134893     0.01840
C1356       C  0.46762953  0.27273984  0.22173373    -0.00480
C1357       C  0.45214298  0.25964016  0.19232567    -0.12210
C1358       C  0.43564288  0.28134495  0.16915119     0.01720
H1359       H  0.43900602  0.35418210  0.21600030     0.14700
H1360       H  0.45664400  0.23336881  0.18537679     0.14700
C1361       C  0.42556831  0.26759936  0.13661463     0.36360
C1362       C  0.47475990  0.32202818  0.26127244     0.36260
N1363       N  0.41770992  0.25652075  0.11048447    -0.43990
N1364       N  0.48620078  0.33614236  0.28442241    -0.43980
C1365       C  0.43480960  0.18165591  0.32662884    -0.00400
C1366       C  0.44629439  0.21375766  0.33667455    -0.12270
C1367       C  0.46390822  0.23474681  0.31381092     0.01840
C1368       C  0.46965091  0.22387067  0.27986462    -0.00480
C1369       C  0.45308737  0.19442974  0.26861029    -0.12210
C1370       C  0.43623617  0.17305438  0.29167076     0.01720
H1371       H  0.44464999  0.22101993  0.36325424     0.14700
H1372       H  0.45645683  0.18620508  0.24250651     0.14700
C1373       C  0.42252349  0.14149567  0.27899678     0.36360
C1374       C  0.47847993  0.26546623  0.32739789     0.36260
N1375       N  0.41168903  0.11631094  0.26836958    -0.43990
N1376       N  0.48999554  0.28944405  0.33996616    -0.43980
C1377       C  0.53092151  0.26916866  0.21625459    -0.00400
C1378       C  0.54691951  0.29757365  0.23065100    -0.12270
C1379       C  0.56375661  0.32137614  0.21008670     0.01840
C1380       C  0.56640298  0.31593532  0.17463162    -0.00480
C1381       C  0.55552276  0.28466159  0.16139467    -0.12210
C1382       C  0.53755862  0.26149522  0.18175400     0.01720
H1383       H  0.54306257  0.30312453  0.25737957     0.14700
H1384       H  0.55815975  0.27965519  0.13438377     0.14700
C1385       C  0.52407541  0.23143329  0.16572895     0.36360
C1386       C  0.57638520  0.35189630  0.22589192     0.36260
N1387       N  0.51350326  0.20766397  0.15199371    -0.43990
N1388       N  0.58631962  0.37616503  0.23915327    -0.43980
C1389       C  0.53264004  0.21807806  0.27196899    -0.00400
C1390       C  0.54699992  0.23085282  0.30178274    -0.12270
C1391       C  0.56026975  0.20866974  0.32617827     0.01840
C1392       C  0.56575690  0.17393331  0.31795777    -0.00480
C1393       C  0.55810780  0.16297391  0.28482497    -0.12210
C1394       C  0.54019290  0.18429050  0.26238949     0.01720
H1395       H  0.54229772  0.25709254  0.30861901     0.14700
H1396       H  0.56206387  0.13656384  0.27797946     0.14700
C1397       C  0.52631922  0.16951821  0.23182066     0.36360
C1398       C  0.56131216  0.22122769  0.36063248     0.36260
N1399       N  0.51511498  0.15678731  0.20776154    -0.43990
N1400       N  0.55961113  0.23119684  0.38825729    -0.43980
C1401       C  0.06264997  0.18278053  0.17406377    -0.00400
C1402       C  0.06669229  0.17796406  0.20929302    -0.12270
C1403       C  0.05021279  0.19942825  0.23257088     0.01840
C1404       C  0.02915861  0.22604515  0.22052582    -0.00480
C1405       C  0.02956301  0.23398653  0.18585225    -0.12210
C1406       C  0.04589948  0.21280115  0.16255140     0.01720
H1407       H  0.08044179  0.15593290  0.21870723     0.14700
H1408       H  0.01378730  0.25471166  0.17652710     0.14700
C1409       C  0.04238949  0.22146987  0.12692837     0.36360
C1410       C  0.05278349  0.19151449  0.26834548     0.36260
N1411       N  0.03917969  0.22844134  0.09845522    -0.43990
N1412       N  0.05521951  0.18457906  0.29689365    -0.43980
C1413       C  0.22177083  0.03454729  0.22500359    -0.00400
C1414       C  0.23603596  0.04229381  0.19311552    -0.12270
C1415       C  0.21650194  0.05815406  0.16762379     0.01840
C1416       C  0.18322620  0.06956830  0.17519588    -0.00480
C1417       C  0.17165980  0.06715613  0.20889215    -0.12210
C1418       C  0.18959926  0.04843303  0.23317467     0.01720
H1419       H  0.26068552  0.03182330  0.18656764     0.14700
H1420       H  0.14637854  0.07632232  0.21526838     0.14700
C1421       C  0.17144406  0.03970500  0.26385382     0.36360
C1422       C  0.22926892  0.05734108  0.13321969     0.36260
N1423       N  0.15539010  0.03262824  0.28752610    -0.43990
N1424       N  0.23955205  0.05586013  0.10566846    -0.43980
C1425       C  0.17186588  0.18662938  0.06539826    -0.00400
C1426       C  0.15844778  0.21691892  0.05210943    -0.12270
C1427       C  0.17941190  0.23975321  0.03475007     0.01840
C1428       C  0.21427674  0.23222508  0.03054443    -0.00480
C1429       C  0.22857857  0.20539348  0.04924819    -0.12210
C1430       C  0.20754913  0.18233095  0.06644159     0.01720
H1431       H  0.13115336  0.22122267  0.05233105     0.14700
H1432       H  0.25565974  0.20042070  0.04753126     0.14700
C1433       C  0.22307942  0.15405633  0.08397249     0.36360
C1434       C  0.16386847  0.26891051  0.01865203     0.36260
N1435       N  0.23593307  0.13178851  0.09836261    -0.43990
N1436       N  0.15086831  0.29208723  0.00588755    -0.43980
C1437       C  0.17757853  0.18146793  0.93104014    -0.00400
C1438       C  0.20829409  0.16952837  0.94516930    -0.12270
C1439       C  0.22984036  0.19109951  0.96333693     0.01840
C1440       C  0.22097626  0.22558906  0.96765062    -0.00480
C1441       C  0.19380785  0.23880084  0.94841291    -0.12210
C1442       C  0.17206552  0.21704901  0.93004217     0.01720
H1443       H  0.21433909  0.14260637  0.94442739     0.14700
H1444       H  0.18767290  0.26559569  0.95029468     0.14700
C1445       C  0.14351217  0.23179838  0.91219687     0.36360
C1446       C  0.25908122  0.17615102  0.97992230     0.36260
N1447       N  0.12084658  0.24378141  0.89759767    -0.43990
N1448       N  0.28211697  0.16310906  0.99293430    -0.43980
C1449       C  0.96741443  0.21598056  0.23159414    -0.00400
C1450       C  0.97051116  0.18091856  0.23863492    -0.12270
C1451       C  0.95663333  0.15644953  0.21669144     0.01840
C1452       C  0.93713003  0.16699583  0.18842228    -0.00480
C1453       C  0.92910151  0.20144081  0.18489232    -0.12210
C1454       C  0.94369481  0.22588964  0.20624199     0.01720
H1455       H  0.98762201  0.17256080  0.25860467     0.14700
H1456       H  0.91280489  0.20949259  0.16402192     0.14700
C1457       C  0.93405493  0.26055679  0.19991613     0.36360
C1458       C  0.96680829  0.12137971  0.22097527     0.36260
N1459       N  0.92340553  0.28712753  0.19305477    -0.43990
N1460       N  0.97531005  0.09334987  0.22410292    -0.43980
C1461       C  0.17203768  0.93771375  0.18719030    -0.00400
C1462       C  0.20658244  0.93992937  0.17821837    -0.12270
C1463       C  0.22980655  0.95695444  0.19912699     0.01840
C1464       C  0.21866727  0.97126615  0.23007215    -0.00480
C1465       C  0.18594244  0.96331284  0.24178089    -0.12210
C1466       C  0.16197355  0.94843480  0.21999870     0.01720
H1467       H  0.21486568  0.93096263  0.15347612     0.14700
H1468       H  0.17773948  0.97282788  0.26622936     0.14700
C1469       C  0.12662497  0.95022486  0.22984955     0.36360
C1470       C  0.26388758  0.96234432  0.18653729     0.36260
N1471       N  0.09835504  0.95279644  0.23773451    -0.43990
N1472       N  0.29107252  0.96657622  0.17599849    -0.43980
C1473       C  0.03281453  0.77426902  0.78162631    -0.00400
C1474       C  0.04451840  0.80453432  0.76654374    -0.12270
C1475       C  0.06081268  0.82949812  0.78625326     0.01840
C1476       C  0.06625787  0.82350193  0.82132906    -0.00480
C1477       C  0.06023424  0.79084257  0.83437633    -0.12210
C1478       C  0.04310426  0.76653064  0.81522072     0.01720
H1479       H  0.03741716  0.81035117  0.74050170     0.14700
H1480       H  0.06575793  0.78538293  0.86092339     0.14700
C1481       C  0.03247438  0.73601296  0.83267887     0.36360
C1482       C  0.06824629  0.86195901  0.77073330     0.36260
N1483       N  0.02398182  0.71213314  0.84772037    -0.43990
N1484       N  0.07424933  0.88796379  0.75824615    -0.43980
C1485       C  0.96919730  0.77303949  0.78212563    -0.00400
C1486       C  0.95810119  0.76101588  0.81382286    -0.12270
C1487       C  0.94194358  0.78283562  0.83691391     0.01840
C1488       C  0.93372324  0.81649269  0.82695080    -0.00480
C1489       C  0.93952594  0.82621468  0.79296379    -0.12210
C1490       C  0.95743398  0.80498947  0.77071697     0.01720
H1491       H  0.96569758  0.73588792  0.82213851     0.14700
H1492       H  0.93248793  0.85155359  0.78450730     0.14700
C1493       C  0.96602552  0.81779196  0.73734617     0.36360
C1494       C  0.93925018  0.77153141  0.87177924     0.36260
N1495       N  0.97285299  0.82819478  0.71062853    -0.43990
N1496       N  0.93798867  0.76235881  0.89976648    -0.43980
C1497       C  0.06569905  0.68630319  0.67277294    -0.00400
C1498       C  0.06957536  0.67856711  0.70739301    -0.12270
C1499       C  0.05321558  0.69783573  0.73240080     0.01840
C1500       C  0.03227579  0.72545738  0.72282973    -0.00480
C1501       C  0.03304302  0.73633951  0.68863751    -0.12210
C1502       C  0.04902364  0.71671592  0.66347712     0.01720
H1503       H  0.08334314  0.65575516  0.71477073     0.14700
H1504       H  0.01771918  0.75798399  0.68093522     0.14700
C1505       C  0.04396723  0.72587299  0.62820935     0.36360
C1506       C  0.05689531  0.68672918  0.76711827     0.36260
N1507       N  0.03972437  0.73307952  0.59993285    -0.43990
N1508       N  0.06151373  0.67636401  0.79431394    -0.43980
C1509       C  0.96948273  0.71833833  0.73119165    -0.00400
C1510       C  0.95318148  0.73199067  0.70248863    -0.12270
C1511       C  0.93458732  0.71100005  0.68063522     0.01840
C1512       C  0.93213272  0.67581307  0.68770748    -0.00480
C1513       C  0.94323025  0.66367026  0.71945580    -0.12210
C1514       C  0.96179765  0.68479148  0.74129341     0.01720
H1515       H  0.95795904  0.75813171  0.69517775     0.14700
H1516       H  0.94030868  0.63697361  0.72582770     0.14700
C1517       C  0.97470023  0.67076517  0.77271768     0.36360
C1518       C  0.92018707  0.72575263  0.65011345     0.36260
N1519       N  0.98446150  0.65921683  0.79804005    -0.43990
N1520       N  0.90860287  0.73763888  0.62571802    -0.43980
C1521       C  0.78589663  0.03245282  0.76865083    -0.00400
C1522       C  0.77099081  0.04763197  0.79726333    -0.12270
C1523       C  0.79112556  0.06447689  0.82142645     0.01840
C1524       C  0.82668921  0.06732192  0.81653193    -0.00480
C1525       C  0.84046180  0.05694693  0.78537128    -0.12210
C1526       C  0.82057536  0.03928141  0.76169586     0.01720
H1527       H  0.74433220  0.04291285  0.80274451     0.14700
H1528       H  0.86756953  0.05970816  0.78082005     0.14700
C1529       C  0.83744518  0.02626640  0.73189489     0.36360
C1530       C  0.77479167  0.07698217  0.85171104     0.36260
N1531       N  0.85199963  0.01657658  0.70822770    -0.43990
N1532       N  0.76117265  0.08692505  0.87577870    -0.43980
C1533       C  0.78033935  0.96959307  0.77276360    -0.00400
C1534       C  0.76911289  0.96574392  0.80635882    -0.12270
C1535       C  0.78875079  0.94825904  0.83025626     0.01840
C1536       C  0.82082016  0.93482745  0.82063349    -0.00480
C1537       C  0.82888366  0.93347057  0.78574841    -0.12210
C1538       C  0.80834738  0.95024486  0.76167611     0.01720
H1539       H  0.74672943  0.97948147  0.81481477     0.14700
H1540       H  0.85223158  0.92132310  0.77748141     0.14700
C1541       C  0.81668517  0.94783173  0.72605445     0.36360
C1542       C  0.77616567  0.94659055  0.86478438     0.36260
N1543       N  0.82314133  0.94527199  0.69743829    -0.43990
N1544       N  0.76601338  0.94532276  0.89240565    -0.43980
C1545       C  0.67247879  0.06643117  0.68517406    -0.00400
C1546       C  0.70700055  0.06710008  0.67585979    -0.12270
C1547       C  0.73174729  0.05060134  0.69558316     0.01840
C1548       C  0.72212681  0.03332986  0.72556403    -0.00480
C1549       C  0.68864068  0.03755398  0.73758183    -0.12210
C1550       C  0.66359479  0.05321980  0.71737970     0.01720
H1551       H  0.71424964  0.07800981  0.65153146     0.14700
H1552       H  0.68102830  0.02491737  0.76088333     0.14700
C1553       C  0.62853417  0.05107442  0.72821406     0.36360
C1554       C  0.76579851  0.04856803  0.68213840     0.36260
N1555       N  0.60040968  0.04905832  0.73676527    -0.43990
N1556       N  0.79273250  0.04752925  0.67031165    -0.43980
C1557       C  0.72641133  0.97032248  0.72055340    -0.00400
C1558       C  0.73579136  0.96440379  0.68676882    -0.12270
C1559       C  0.71392228  0.94737466  0.66460041     0.01840
C1560       C  0.68188452  0.93563044  0.67645208    -0.00480
C1561       C  0.67520105  0.93666824  0.71156897    -0.12210
C1562       C  0.69733251  0.95387472  0.73370293     0.01720
H1563       H  0.75857680  0.97632177  0.67672843     0.14700
H1564       H  0.65140862  0.92665852  0.72133377     0.14700
C1565       C  0.68841807  0.95640231  0.76919992     0.36360
C1566       C  0.72411493  0.94485975  0.62934076     0.36260
N1567       N  0.68109083  0.95814497  0.79766475    -0.43990
N1568       N  0.73227416  0.94319192  0.60109055    -0.43980
C1569       C  0.77741152  0.77558467  0.03265145    -0.00400
C1570       C  0.81200803  0.76652487  0.03044116    -0.12270
C1571       C  0.83708955  0.78566718  0.04698549     0.01840
C1572       C  0.82740890  0.81378773  0.06693572    -0.00480
C1573       C  0.79271373  0.81952502  0.07324219    -0.12210
C1574       C  0.76766852  0.80033846  0.05665066     0.01720
H1575       H  0.81975525  0.74707288  0.01252049     0.14700
H1576       H  0.78516691  0.84059389  0.08934957     0.14700
C1577       C  0.73244474  0.80830858  0.06310863     0.36360
C1578       C  0.87239136  0.77893248  0.03917569     0.36260
N1579       N  0.70443397  0.81519194  0.06912379    -0.43990
N1580       N  0.90066053  0.77370731  0.03270792    -0.43980
C1581       C  0.76596965  0.78680671  0.97112839    -0.00400
C1582       C  0.79171128  0.77265438  0.95088467    -0.12270
C1583       C  0.81428480  0.79370861  0.93301680     0.01840
C1584       C  0.81086999  0.82939107  0.93505035    -0.00480
C1585       C  0.78174089  0.84299233  0.95042032    -0.12210
C1586       C  0.75933625  0.82202051  0.96844249     0.01720
H1587       H  0.79650188  0.74550154  0.95204165     0.14700
H1588       H  0.77813614  0.87034519  0.95112196     0.14700
C1589       C  0.73138117  0.83787578  0.98607058     0.36360
C1590       C  0.84114244  0.77813534  0.91356804     0.36260
N1591       N  0.70908549  0.85151897  0.99960033    -0.43990
N1592       N  0.86214239  0.76523392  0.89753459    -0.43980
C1593       C  0.68027063  0.67662778  0.06710996    -0.00400
C1594       C  0.71365010  0.66755911  0.05798317    -0.12270
C1595       C  0.73486164  0.69114305  0.04141861     0.01840
C1596       C  0.72219122  0.72377814  0.03315048    -0.00480
C1597       C  0.69116299  0.73410006  0.04700943    -0.12210
C1598       C  0.67045186  0.71112532  0.06431389     0.01720
H1599       H  0.72215650  0.64149857  0.06114519     0.14700
H1600       H  0.68132184  0.75916718  0.04117289     0.14700
C1601       C  0.63841009  0.72350465  0.07713097     0.36360
C1602       C  0.76842644  0.68061053  0.03091868     0.36260
N1603       N  0.61302564  0.73423637  0.08738935    -0.43990
N1604       N  0.79539334  0.67215764  0.02260268    -0.43980
C1605       C  0.71710731  0.72893309  0.97004831    -0.00400
C1606       C  0.72976031  0.69803508  0.95792045    -0.12270
C1607       C  0.70805890  0.67412062  0.94312238     0.01840
C1608       C  0.67359024  0.68266668  0.93612099    -0.00480
C1609       C  0.66269780  0.71605321  0.94288488    -0.12210
C1610       C  0.68386041  0.73886135  0.96052368     0.01720
H1611       H  0.75548814  0.69052683  0.96453018     0.14700
H1612       H  0.63652723  0.72320844  0.93774999     0.14700
C1613       C  0.66972439  0.77089333  0.97134346     0.36360
C1614       C  0.72097824  0.63984823  0.94037831     0.36260
N1615       N  0.65780586  0.79637955  0.97993083    -0.43990
N1616       N  0.73128909  0.61227455  0.93991395    -0.43980
C1617       C  0.18487316  0.82967651  0.06815030    -0.00400
C1618       C  0.17779972  0.79470404  0.07030025    -0.12270
C1619       C  0.19800234  0.77089399  0.05318046     0.01840
C1620       C  0.22578779  0.78208526  0.03343312    -0.00480
C1621       C  0.23563544  0.81637841  0.03544540    -0.12210
C1622       C  0.21521177  0.84032748  0.05212456     0.01720
H1623       H  0.15486926  0.78621515  0.08313154     0.14700
H1624       H  0.25707433  0.82519670  0.02051961     0.14700
C1625       C  0.22343486  0.87591681  0.04812204     0.36360
C1626       C  0.18740442  0.73576660  0.05325623     0.36260
N1627       N  0.22987373  0.90443474  0.04461867    -0.43990
N1628       N  0.17847893  0.70772105  0.05353537    -0.43980
C1629       C  0.21680437  0.77395644  0.97117029    -0.00400
C1630       C  0.18251944  0.76399440  0.96911443    -0.12270
C1631       C  0.15837795  0.78463944  0.95286123     0.01840
C1632       C  0.16884097  0.81543570  0.93760264    -0.00480
C1633       C  0.20379205  0.82268718  0.93537819    -0.12210
C1634       C  0.22782463  0.80210482  0.95184713     0.01720
H1635       H  0.17389565  0.74221466  0.98368340     0.14700
H1636       H  0.21210878  0.84590085  0.92293372     0.14700
C1637       C  0.26305342  0.81250116  0.95148123     0.36360
C1638       C  0.12281166  0.77596789  0.95640593     0.36260
N1639       N  0.29118949  0.82123593  0.95095688    -0.43990
N1640       N  0.09431111  0.76912634  0.95947230    -0.43980
C1641       C  0.27588032  0.72482579  0.03332217    -0.00400
C1642       C  0.26512675  0.69267869  0.04420686    -0.12270
C1643       C  0.28749517  0.67059049  0.06083344     0.01840
C1644       C  0.32158097  0.68071850  0.06693990    -0.00480
C1645       C  0.33060882  0.71481135  0.06093196    -0.12210
C1646       C  0.30788576  0.73694165  0.04425975     0.01720
H1647       H  0.24039624  0.68331476  0.03643806     0.14700
H1648       H  0.35627150  0.72335263  0.06647432     0.14700
C1649       C  0.31891472  0.77097082  0.03604857     0.36360
C1650       C  0.27531662  0.63683795  0.06895376     0.36260
N1651       N  0.32769784  0.79832484  0.02959533    -0.43990
N1652       N  0.26547580  0.60978988  0.07519774    -0.43980
C1653       C  0.31546779  0.67698142  0.93533519    -0.00400
C1654       C  0.28146471  0.66798921  0.94197870    -0.12270
C1655       C  0.25973902  0.69064898  0.95907254     0.01840
C1656       C  0.27226582  0.72243231  0.97002115    -0.00480
C1657       C  0.30415732  0.73323740  0.95843887    -0.12210
C1658       C  0.32573625  0.71102618  0.94111730     0.01720
H1659       H  0.27273008  0.64241013  0.93656382     0.14700
H1660       H  0.31379460  0.75784017  0.96614393     0.14700
C1661       C  0.35917643  0.72330296  0.93186663     0.36360
C1662       C  0.22569519  0.67981842  0.96754601     0.36260
N1663       N  0.38595876  0.73323941  0.92464164    -0.43990
N1664       N  0.19831862  0.67118480  0.97416927    -0.43980
C1665       C  0.82230459  0.18132386  0.06955465    -0.00400
C1666       C  0.83087750  0.21607139  0.06780923    -0.12270
C1667       C  0.80951321  0.23934923  0.05070395     0.01840
C1668       C  0.77969351  0.22771343  0.03443783    -0.00480
C1669       C  0.76852693  0.19461285  0.04142180    -0.12210
C1670       C  0.78930013  0.17141210  0.05859020     0.01720
H1671       H  0.85519347  0.22467087  0.07764434     0.14700
H1672       H  0.74498498  0.18564070  0.03021275     0.14700
C1673       C  0.77677606  0.13698339  0.06198107     0.36360
C1674       C  0.81896429  0.27473332  0.04945805     0.36260
N1675       N  0.76672250  0.10940412  0.06431021    -0.43990
N1676       N  0.82632053  0.30323191  0.04910573    -0.43980
C1677       C  0.81685306  0.17682235  0.93582906    -0.00400
C1678       C  0.82954840  0.20998920  0.93950021    -0.12270
C1679       C  0.81177004  0.23431255  0.95812228     0.01840
C1680       C  0.77907054  0.22670498  0.97079241    -0.00480
C1681       C  0.76373964  0.19580162  0.96139801    -0.12210
C1682       C  0.78290382  0.17013170  0.94562678     0.01720
H1683       H  0.85534860  0.21572740  0.93141161     0.14700
H1684       H  0.73853751  0.18983502  0.97094323     0.14700
C1685       C  0.76903647  0.13618861  0.94543530     0.36360
C1686       C  0.83007420  0.26460725  0.96767669     0.36260
N1687       N  0.75772529  0.10903865  0.94643745    -0.43990
N1688       N  0.84616264  0.28814622  0.97497671    -0.43980
C1689       C  0.73023510  0.28555588  0.03281765    -0.00400
C1690       C  0.73924538  0.31995907  0.03576582    -0.12270
C1691       C  0.71753352  0.34315719  0.05174379     0.01840
C1692       C  0.68677574  0.33153418  0.06624360    -0.00480
C1693       C  0.68044696  0.29641035  0.06771167    -0.12210
C1694       C  0.70192736  0.27336466  0.05119131     0.01720
H1695       H  0.76117456  0.32944973  0.02201476     0.14700
H1696       H  0.65725541  0.28719577  0.07953836     0.14700
C1697       C  0.69227760  0.23797245  0.05053826     0.36360
C1698       C  0.72511712  0.37896618  0.04848586     0.36260
N1699       N  0.68404161  0.20971670  0.05028582    -0.43990
N1700       N  0.73105099  0.40765582  0.04555061    -0.43980
C1701       C  0.72298590  0.27766678  0.97024906    -0.00400
C1702       C  0.68951919  0.26527121  0.96682452    -0.12270
C1703       C  0.66435961  0.28436837  0.94993691     0.01840
C1704       C  0.67302377  0.31590600  0.93509264    -0.00480
C1705       C  0.70741086  0.32549657  0.93404254    -0.12210
C1706       C  0.73229458  0.30690356  0.95154735     0.01720
H1707       H  0.68206962  0.24265108  0.98074273     0.14700
H1708       H  0.71441763  0.34936220  0.92200834     0.14700
C1709       C  0.76609284  0.32103045  0.95290479     0.36360
C1710       C  0.62938451  0.27328056  0.95222765     0.36260
N1711       N  0.79260556  0.33382461  0.95333556    -0.43990
N1712       N  0.60132344  0.26451237  0.95426498    -0.43980
C1713       C  0.82289358  0.06255163  0.18035251    -0.00400
C1714       C  0.78784577  0.06757710  0.17481282    -0.12270
C1715       C  0.76369702  0.05197085  0.19600924     0.01840
C1716       C  0.77466621  0.03073481  0.22280805    -0.00480
C1717       C  0.80910677  0.03116153  0.23204342    -0.12210
C1718       C  0.83335523  0.04625832  0.21097123     0.01720
H1719       H  0.77921113  0.08162475  0.15263336     0.14700
H1720       H  0.81757944  0.01596310  0.25354597     0.14700
C1721       C  0.86872296  0.04175270  0.22030491     0.36360
C1722       C  0.72805651  0.05710447  0.18889531     0.36260
N1723       N  0.89698064  0.03768609  0.22774076    -0.43990
N1724       N  0.69959212  0.06198030  0.18292675    -0.43980
C1725       C  0.81398287  0.93322932  0.17363539    -0.00400
C1726       C  0.78345779  0.94569373  0.15998625    -0.12270
C1727       C  0.76040115  0.96347346  0.18039298     0.01840
C1728       C  0.76740476  0.96831349  0.21535674    -0.00480
C1729       C  0.79512521  0.95089717  0.22991185    -0.12210
C1730       C  0.81875995  0.93394612  0.20925423     0.01720
H1731       H  0.77913665  0.94451106  0.13272348     0.14700
H1732       H  0.80057425  0.95403500  0.25680115     0.14700
C1733       C  0.84847358  0.91898126  0.22495030     0.36360
C1734       C  0.73148916  0.97898928  0.16386860     0.36260
N1735       N  0.87218610  0.90686881  0.23764035    -0.43990
N1736       N  0.70860272  0.99089514  0.14955663    -0.43980
C1737       C  0.72337708  0.03050264  0.27790248    -0.00400
C1738       C  0.69152714  0.04243346  0.26729728    -0.12270
C1739       C  0.67030803  0.05990099  0.28968557     0.01840
C1740       C  0.68067325  0.06490913  0.32386357    -0.00480
C1741       C  0.71463330  0.05780769  0.33277045    -0.12210
C1742       C  0.73618582  0.04101259  0.30977410     0.01720
H1743       H  0.68164450  0.03494007  0.24269370     0.14700
H1744       H  0.72350480  0.06277168  0.35843380     0.14700
C1745       C  0.77043200  0.03266281  0.32021356     0.36360
C1746       C  0.63715690  0.07023296  0.27737969     0.36260
N1747       N  0.79793679  0.02604950  0.32856651    -0.43990
N1748       N  0.61064006  0.07840523  0.26736386    -0.43980
C1749       C  0.72164033  0.96714845  0.27616784    -0.00400
C1750       C  0.73416584  0.95720778  0.30817929    -0.12270
C1751       C  0.71286867  0.94157323  0.33214984     0.01840
C1752       C  0.67913198  0.93293582  0.32302535    -0.00480
C1753       C  0.66868352  0.93787925  0.28912258    -0.12210
C1754       C  0.68934550  0.95529567  0.26589645     0.01720
H1755       H  0.75919158  0.96564342  0.31607991     0.14700
H1756       H  0.64306844  0.93079367  0.28154930     0.14700
C1757       C  0.67503454  0.96403676  0.23320478     0.36360
C1758       C  0.72465665  0.93991083  0.36694330     0.36260
N1759       N  0.66268003  0.97091287  0.20733296    -0.43990
N1760       N  0.73415535  0.93926297  0.39484857    -0.43980
C1761       C  0.02799570  0.77311735  0.22112353    -0.00400
C1762       C  0.04341610  0.80235888  0.23439966    -0.12270
C1763       C  0.06146379  0.82462999  0.21316909     0.01840
C1764       C  0.06456071  0.81762263  0.17799316    -0.00480
C1765       C  0.05382285  0.78575495  0.16608186    -0.12210
C1766       C  0.03573327  0.76349599  0.18739438     0.01720
H1767       H  0.03858677  0.80947921  0.26060762     0.14700
H1768       H  0.05707189  0.77934337  0.13944653     0.14700
C1769       C  0.02405447  0.73167486  0.17349493     0.36360
C1770       C  0.07546494  0.85501791  0.22803579     0.36260
N1771       N  0.01543073  0.70607317  0.16186255    -0.43990
N1772       N  0.08682024  0.87905176  0.24056381    -0.43980
C1773       C  0.93201613  0.82694315  0.18719339    -0.00400
C1774       C  0.92929895  0.79219933  0.17964409    -0.12270
C1775       C  0.94546558  0.76785424  0.20002256     0.01840
C1776       C  0.96505185  0.77843114  0.22811623    -0.00480
C1777       C  0.96263321  0.81242368  0.23885603    -0.12210
C1778       C  0.94698420  0.83693801  0.21825072     0.01720
H1779       H  0.91657036  0.78427847  0.15644040     0.14700
H1780       H  0.97700262  0.82062896  0.26096550     0.14700
C1781       C  0.95124756  0.87232916  0.22706258     0.36360
C1782       C  0.94271075  0.73265317  0.19039922     0.36260
N1783       N  0.95500118  0.90067637  0.23400034    -0.43990
N1784       N  0.93922772  0.70470537  0.18193179    -0.43980
C1785       C  0.02982273  0.72951294  0.28287770    -0.00400
C1786       C  0.04724766  0.70140027  0.26979376    -0.12270
C1787       C  0.06444958  0.67915837  0.29173246     0.01840
C1788       C  0.06491445  0.68566451  0.32711661    -0.00480
C1789       C  0.05335644  0.71729055  0.33884898    -0.12210
C1790       C  0.03602083  0.73937054  0.31683078     0.01720
H1791       H  0.04427108  0.69478480  0.24319602     0.14700
H1792       H  0.05493214  0.72337802  0.36571911     0.14700
C1793       C  0.02235374  0.77068149  0.33020252     0.36360
C1794       C  0.07983886  0.64908431  0.27750175     0.36260
N1795       N  0.01153292  0.79586215  0.34090372    -0.43990
N1796       N  0.09229971  0.62521562  0.26569397    -0.43980
C1797       C  0.93001241  0.68040217  0.32529064    -0.00400
C1798       C  0.94191716  0.66786753  0.29399663    -0.12270
C1799       C  0.96056907  0.68832675  0.27181345     0.01840
C1800       C  0.96660585  0.72273070  0.27993798    -0.00480
C1801       C  0.94990852  0.73675038  0.30826472    -0.12210
C1802       C  0.93191169  0.71585830  0.33119713     0.01720
H1803       H  0.93940533  0.64103784  0.28809478     0.14700
H1804       H  0.95353510  0.76339979  0.31417406     0.14700
C1805       C  0.91812755  0.73109535  0.36157904     0.36360
C1806       C  0.97651138  0.67201416  0.24305702     0.36260
N1807       N  0.90699719  0.74341444  0.38587221    -0.43990
N1808       N  0.98921405  0.65819448  0.22040121    -0.43980
C1809       C  0.22036588  0.02873110  0.77510492    -0.00400
C1810       C  0.23463932  0.04269834  0.80473041    -0.12270
C1811       C  0.21441312  0.06116389  0.82755498     0.01840
C1812       C  0.17936939  0.06572221  0.82044020    -0.00480
C1813       C  0.16712922  0.05696359  0.78795943    -0.12210
C1814       C  0.18734680  0.03864026  0.76530636     0.01720
H1815       H  0.26053133  0.03618523  0.81177691     0.14700
H1816       H  0.14078545  0.06200790  0.78124462     0.14700
C1817       C  0.17254935  0.02782189  0.73348076     0.36360
C1818       C  0.22958562  0.07216718  0.85915790     0.36260
N1819       N  0.16034706  0.01963004  0.70795365    -0.43990
N1820       N  0.24184637  0.08112393  0.88440650    -0.43980
C1821       C  0.22424952  0.96539954  0.78001070    -0.00400
C1822       C  0.23464617  0.96282733  0.81423652    -0.12270
C1823       C  0.21361288  0.94766132  0.83876936     0.01840
C1824       C  0.18227658  0.93323480  0.82875132    -0.00480
C1825       C  0.17470121  0.93094010  0.79393329    -0.12210
C1826       C  0.19547969  0.94659432  0.76955463     0.01720
H1827       H  0.25717040  0.97641828  0.82256376     0.14700
H1828       H  0.15122541  0.91877303  0.78591906     0.14700
C1829       C  0.18512463  0.94443451  0.73447291     0.36360
C1830       C  0.22254200  0.95153616  0.87423179     0.36260
N1831       N  0.17570524  0.94130137  0.70674536    -0.43990
N1832       N  0.22952513  0.95494076  0.90265744    -0.43980
C1833       C  0.27194274  0.02900596  0.72144369    -0.00400
C1834       C  0.25865193  0.04466388  0.69226366    -0.12270
C1835       C  0.28003362  0.06236110  0.66978194     0.01840
C1836       C  0.31531396  0.06481096  0.67691162    -0.00480
C1837       C  0.32669679  0.05482703  0.70947370    -0.12210
C1838       C  0.30530742  0.03716175  0.73171476     0.01720
H1839       H  0.23228431  0.04039073  0.68540844     0.14700
H1840       H  0.35312694  0.05845363  0.71667444     0.14700
C1841       C  0.31904207  0.02514127  0.76367276     0.36360
C1842       C  0.26508545  0.07546020  0.63897471     0.36260
N1843       N  0.33010215  0.01565229  0.78932341    -0.43990
N1844       N  0.25192803  0.08593510  0.61478658    -0.43980
C1845       C  0.26961633  0.96572494  0.71771990    -0.00400
C1846       C  0.29840204  0.95043062  0.73247267    -0.12270
C1847       C  0.32246192  0.93373522  0.71211281     0.01840
C1848       C  0.31686599  0.93086394  0.67669100    -0.00480
C1849       C  0.28547278  0.94110110  0.66318340    -0.12210
C1850       C  0.26216973  0.95897988  0.68313596     0.01720
H1851       H  0.30402982  0.95484402  0.75911973     0.14700
H1852       H  0.28064781  0.93844821  0.63611241     0.14700
C1853       C  0.23277416  0.97323959  0.66624027     0.36360
C1854       C  0.35349033  0.92159237  0.72776338     0.36260
N1855       N  0.20950744  0.98449520  0.65199909    -0.43990
N1856       N  0.37837374  0.91189889  0.74031058    -0.43980
C1857       C  0.03054974  0.22276431  0.77364784    -0.00400
C1858       C  0.04183936  0.19182075  0.75993170    -0.12270
C1859       C  0.05842122  0.16769594  0.78055857     0.01840
C1860       C  0.06517861  0.17544625  0.81506758    -0.00480
C1861       C  0.06001072  0.20905048  0.82620060    -0.12210
C1862       C  0.04284862  0.23264782  0.80581252     0.01720
H1863       H  0.03446950  0.18501495  0.73428637     0.14700
H1864       H  0.06682249  0.21616274  0.85198672     0.14700
C1865       C  0.03522471  0.26570930  0.81978570     0.36360
C1866       C  0.06473911  0.13435556  0.76662028     0.36260
N1867       N  0.02923581  0.29219752  0.83109529    -0.43990
N1868       N  0.06969773  0.10761720  0.75539708    -0.43980
C1869       C  0.93301305  0.18320476  0.82743235    -0.00400
C1870       C  0.93885630  0.17059560  0.79455923    -0.12270
C1871       C  0.95660170  0.18955644  0.77042516     0.01840
C1872       C  0.96707788  0.22306617  0.77801271    -0.00480
C1873       C  0.95620667  0.23769632  0.80883140    -0.12210
C1874       C  0.93992472  0.21787293  0.83391131     0.01720
H1875       H  0.93260275  0.14435745  0.78871409     0.14700
H1876       H  0.96384104  0.26346616  0.81487860     0.14700
C1877       C  0.93406643  0.23270514  0.86695283     0.36360
C1878       C  0.96725052  0.17198454  0.74003577     0.36260
N1879       N  0.92948683  0.24460493  0.89347655    -0.43990
N1880       N  0.97561557  0.15698278  0.71613992    -0.43980
C1881       C  0.06584237  0.32131932  0.67949751    -0.00400
C1882       C  0.05355376  0.29003516  0.66708705    -0.12270
C1883       C  0.03494693  0.26798414  0.68789135     0.01840
C1884       C  0.02835390  0.27693574  0.72188407    -0.00480
C1885       C  0.04526300  0.30522315  0.73576176    -0.12210
C1886       C  0.06401613  0.32744908  0.71491327     0.01720
H1887       H  0.05621002  0.28385497  0.64032433     0.14700
H1888       H  0.04103666  0.31186062  0.76215431     0.14700
C1889       C  0.07860609  0.35746830  0.73014713     0.36360
C1890       C  0.02058289  0.23768816  0.67297313     0.36260
N1891       N  0.09047905  0.38141789  0.74245563    -0.43990
N1892       N  0.00942611  0.21338430  0.66070538    -0.43980
C1893       C  0.96543238  0.28351727  0.72994411    -0.00400
C1894       C  0.96541331  0.31823214  0.73867235    -0.12270
C1895       C  0.94982865  0.34251068  0.71758157     0.01840
C1896       C  0.93214372  0.33182197  0.68820630    -0.00480
C1897       C  0.92723659  0.29698719  0.68289923    -0.12210
C1898       C  0.94350196  0.27281780  0.70346961     0.01720
H1899       H  0.98138479  0.32687589  0.75945510     0.14700
H1900       H  0.91259969  0.28862259  0.66100056     0.14700
C1901       C  0.93846214  0.23770345  0.69471192     0.36360
C1902       C  0.95664544  0.37802902  0.72395056     0.36260
N1903       N  0.93237051  0.21031314  0.68594934    -0.43990
N1904       N  0.96243700  0.40646484  0.72883597    -0.43980
loop_ 
_geom_bond_atom_site_label_1 
_geom_bond_atom_site_label_2 
_geom_bond_distance 
_geom_bond_site_symmetry_2 
_ccdc_geom_bond_type 
C1            C2   1.356       .  D
C1         C1884   1.493   1_655  S
C1         C1893   1.496       .  S
C2         C1857   1.492   1_655  S
C2         C1872   1.493       .  S
C3            C4   1.352       .  D
C3         C1833   1.490   1_565  S
C3         C1845   1.488       .  S
C4         C1809   1.486   1_565  S
C4         C1821   1.495       .  S
C5            C6   1.351       .  D
C5         C1785   1.485   1_655  S
C5         C1800   1.492       .  S
C6         C1761   1.494   1_655  S
C6         C1776   1.485       .  S
C7            C8   1.353       .  D
C7         C1737   1.487   1_565  S
C7         C1749   1.490       .  S
C8         C1716   1.489   1_565  S
C8         C1728   1.492       .  S
C9           C10   1.354       .  D
C9         C1689   1.485       .  S
C9         C1701   1.495   1_554  S
C10        C1668   1.496       .  S
C10        C1680   1.488   1_554  S
C11          C12   1.351       .  D
C11        C1641   1.487       .  S
C11        C1656   1.488   1_554  S
C12        C1620   1.489       .  S
C12        C1629   1.486   1_554  S
C13          C14   1.352       .  D
C13        C1596   1.486       .  S
C13        C1605   1.491   1_554  S
C14        C1569   1.491       .  S
C14        C1581   1.488   1_554  S
C15          C16   1.354       .  D
C15        C1548   1.493       .  S
C15        C1557   1.486   1_545  S
C16        C1521   1.491       .  S
C16        C1533   1.488   1_545  S
C17          C18   1.352       .  D
C17        C1500   1.496       .  S
C17        C1509   1.485   1_455  S
C18        C1473   1.485       .  S
C18        C1485   1.493   1_455  S
O19         Cr37   1.993       .  S
O19          C27   1.263       .  A
O20         Cr37   1.984       .  S
O20          C21   1.259       .  A
C21          O22   1.263       .  A
C21        C1824   1.480       .  S
O22         Cr38   1.998       .  S
O23         Cr38   1.986       .  S
O23          C24   1.259       .  A
C24          O25   1.263       .  A
C24        C1476   1.481       .  S
O25         Cr39   1.986       .  S
O26         Cr39   1.981       .  S
O26          C27   1.259       .  A
C27        C1632   1.477       .  S
O28         Cr37   1.988       .  S
O28          C36   1.263       .  A
O29         Cr37   2.002       .  S
O29          C30   1.267       .  A
C30          O31   1.261       .  A
C30         C168   1.468   1_565  S
O31         Cr38   1.982       .  S
O32         Cr38   2.006       .  S
O32          C33   1.265       .  A
C33          O34   1.261       .  A
C33          C58   1.467   1_455  S
O34         Cr39   1.980       .  S
O35         Cr39   2.001       .  S
O35          C36   1.263       .  A
C36          C77   1.472   1_556  S
Cr37         O40   1.778       .  S
Cr38         O40   1.782       .  S
Cr39         O40   1.777       .  S
O41         Cr59   1.994       .  S
O41          C49   1.261       .  A
O42         Cr59   1.991       .  S
O42          C43   1.262       .  A
C43          O44   1.262       .  A
C43        C1536   1.486       .  S
O44         Cr60   1.990       .  S
O45         Cr60   1.979       .  S
O45          C46   1.260       .  A
C46          O47   1.266       .  A
C46        C1584   1.479       .  S
O47         Cr61   2.001       .  S
O48         Cr61   1.987       .  S
O48          C49   1.258       .  A
C49        C1488   1.488       .  S
O50         Cr59   1.982       .  S
O50          C58   1.264       .  A
O51         Cr59   2.009       .  S
O51          C52   1.266       .  A
C52          O53   1.260       .  A
C52         C124   1.474   1_565  S
O53         Cr60   1.985       .  S
O54         Cr60   1.993       .  S
O54          C55   1.261       .  A
C55          O56   1.259       .  A
C55          C96   1.465   1_556  S
O56         Cr61   1.982       .  S
O57         Cr61   2.005       .  S
O57          C58   1.267       .  A
Cr59         O62   1.779       .  S
Cr60         O62   1.779       .  S
Cr61         O62   1.780       .  S
O63         Cr81   1.999       .  S
O63          C71   1.263       .  A
O64         Cr81   1.980       .  S
O64          C65   1.259       .  A
C65          O66   1.264       .  A
C65        C1461   1.481       .  S
O66         Cr82   1.995       .  S
O67         Cr82   1.985       .  S
O67          C68   1.259       .  A
C68          O69   1.262       .  A
C68        C1617   1.480       .  S
O69         Cr83   1.991       .  S
O70         Cr83   1.993       .  S
O70          C71   1.262       .  A
C71        C1764   1.488       .  S
O72         Cr81   1.979       .  S
O72          C80   1.261       .  A
O73         Cr81   2.009       .  S
O73          C74   1.264       .  A
C74          O75   1.260       .  A
C74         C190   1.472   1_565  S
O75         Cr82   1.980       .  S
O76         Cr82   2.005       .  S
O76          C77   1.265       .  A
C77          O78   1.262       .  A
O78         Cr83   1.985       .  S
O79         Cr83   1.995       .  S
O79          C80   1.262       .  A
C80         C102   1.461   1_455  S
Cr81         O84   1.785       .  S
Cr82         O84   1.785       .  S
Cr83         O84   1.784       .  S
O85        Cr103   1.994       .  S
O85          C93   1.265       .  A
O86        Cr103   1.983       .  S
O86          C87   1.259       .  A
C87          O88   1.262       .  A
C87        C1572   1.474       .  S
O88        Cr104   1.992       .  S
O89        Cr104   1.978       .  S
O89          C90   1.258       .  A
C90          O91   1.264       .  A
C90        C1725   1.479       .  S
O91        Cr105   2.004       .  S
O92        Cr105   1.975       .  S
O92          C93   1.259       .  A
C93        C1773   1.472       .  S
O94        Cr103   1.980       .  S
O94         C102   1.260       .  A
O95        Cr103   2.003       .  S
O95          C96   1.264       .  A
C96          O97   1.262       .  A
O97        Cr104   1.977       .  S
O98        Cr104   2.006       .  S
O98          C99   1.267       .  A
C99         O100   1.258       .  A
C99         C140   1.468   1_565  S
O100       Cr105   1.981       .  S
O101       Cr105   1.995       .  S
O101        C102   1.262       .  A
Cr103       O106   1.779       .  S
Cr104       O106   1.775       .  S
Cr105       O106   1.780       .  S
O107       Cr125   1.986       .  S
O107        C115   1.261       .  A
O108       Cr125   1.983       .  S
O108        C109   1.262       .  A
C109        O110   1.262       .  A
C109       C1869   1.488       .  S
O110       Cr126   1.999       .  S
O111       Cr126   1.979       .  S
O111        C112   1.261       .  A
C112        O113   1.261       .  A
C112       C1677   1.482       .  S
O113       Cr127   1.995       .  S
O114       Cr127   2.000       .  S
O114        C115   1.263       .  A
C115       C1524   1.485       .  S
O116       Cr125   1.998       .  S
O116        C124   1.264       .  A
O117       Cr125   1.989       .  S
O117        C118   1.265       .  A
C118        O119   1.263       .  A
C118        C165   1.472   1_655  S
O119       Cr126   2.002       .  S
O120       Cr126   1.982       .  S
O120        C121   1.263       .  A
C121        O122   1.263       .  A
C121        C143   1.462   1_556  S
O122       Cr127   1.996       .  S
O123       Cr127   1.992       .  S
O123        C124   1.262       .  A
Cr125       O128   1.776       .  S
Cr126       O128   1.781       .  S
Cr127       O128   1.785       .  S
O129       Cr147   1.975       .  S
O129        C137   1.259       .  A
O130       Cr147   1.986       .  S
O130        C131   1.261       .  A
C131        O132   1.265       .  A
C131       C1713   1.489       .  S
O132       Cr148   1.996       .  S
O133       Cr148   1.980       .  S
O133        C134   1.258       .  A
C134        O135   1.263       .  A
C134       C1665   1.494       .  S
O135       Cr149   2.006       .  S
O136       Cr149   2.002       .  S
O136        C137   1.267       .  A
C137       C1452   1.477       .  S
O138       Cr147   1.981       .  S
O138        C146   1.261       .  A
O139       Cr147   1.986       .  S
O139        C140   1.261       .  A
C140        O141   1.262       .  A
O141       Cr148   1.996       .  S
O142       Cr148   1.983       .  S
O142        C143   1.265       .  A
C143        O144   1.266       .  A
O144       Cr149   1.998       .  S
O145       Cr149   1.994       .  S
O145        C146   1.259       .  A
C146        C184   1.466   1_655  S
Cr147       O150   1.777       .  S
Cr148       O150   1.774       .  S
Cr149       O150   1.780       .  S
O151       Cr169   1.985       .  S
O151        C159   1.260       .  A
O152       Cr169   1.987       .  S
O152        C153   1.262       .  A
C153        O154   1.262       .  A
C153       C1437   1.494       .  S
O154       Cr170   2.000       .  S
O155       Cr170   1.985       .  S
O155        C156   1.262       .  A
C156        O157   1.261       .  A
C156       C1860   1.488       .  S
O157       Cr171   1.993       .  S
O158       Cr171   1.990       .  S
O158        C159   1.264       .  A
C159       C1812   1.484       .  S
O160       Cr169   1.991       .  S
O160        C168   1.262       .  A
O161       Cr169   1.991       .  S
O161        C162   1.263       .  A
C162        O163   1.266       .  A
C162        C187   1.469   1_556  S
O163       Cr170   1.993       .  S
O164       Cr170   1.994       .  S
O164        C165   1.265       .  A
C165        O166   1.262       .  A
O166       Cr171   1.995       .  S
O167       Cr171   1.990       .  S
O167        C168   1.261       .  A
Cr169       O172   1.778       .  S
Cr170       O172   1.774       .  S
Cr171       O172   1.778       .  S
O173       Cr191   1.974       .  S
O173        C181   1.259       .  A
O174       Cr191   2.007       .  S
O174        C175   1.264       .  A
C175        O176   1.256       .  A
C175       C1401   1.492       .  S
O176       Cr192   1.978       .  S
O177       Cr192   1.972       .  S
O177        C178   1.260       .  A
C178        O179   1.268       .  A
C178       C1425   1.476       .  S
O179       Cr193   2.005       .  S
O180       Cr193   1.992       .  S
O180        C181   1.259       .  A
C181       C1416   1.485       .  S
O182       Cr191   1.988       .  S
O182        C190   1.265       .  A
O183       Cr191   1.989       .  S
O183        C184   1.265       .  A
C184        O185   1.265       .  A
O185       Cr192   1.990       .  S
O186       Cr192   1.982       .  S
O186        C187   1.259       .  A
C187        O188   1.259       .  A
O188       Cr193   1.995       .  S
O189       Cr193   2.002       .  S
O189        C190   1.267       .  A
Cr191       O194   1.774       .  S
Cr192       O194   1.779       .  S
Cr193       O194   1.784       .  S
C195        C196   1.354       .  D
C195       C1356   1.486       .  S
C195       C1377   1.494       .  S
C196       C1368   1.497       .  S
C196       C1389   1.486       .  S
C197        C198   1.349       .  D
C197       C1317   1.487       .  S
C197       C1344   1.485       .  S
C198       C1305   1.488       .  S
C198       C1329   1.486       .  S
C199        C200   1.352       .  D
C199       C1269   1.485       .  S
C199       C1293   1.494       .  S
C200       C1257   1.493       .  S
C200       C1281   1.487       .  S
C201        C202   1.349       .  D
C201       C1428   1.483   1_556  S
C201       C1440   1.493       .  S
C202       C1236   1.492   1_556  S
C202       C1248   1.482       .  S
C203        C204   1.353       .  D
C203       C1413   1.490       .  S
C203       C1464   1.490   1_545  S
C204       C1212   1.493       .  S
C204       C1221   1.490   1_545  S
C205        C206   1.352       .  D
C205       C1161   1.495       .  S
C205       C1188   1.483       .  S
C206       C1173   1.483       .  S
C206       C1200   1.497       .  S
C207        C208   1.354       .  D
C207       C1137   1.498       .  S
C207       C1152   1.484       .  S
C208       C1116   1.482       .  S
C208       C1125   1.498       .  S
C209        C210   1.355       .  D
C209       C1080   1.488       .  S
C209       C1104   1.495       .  S
C210       C1065   1.498       .  S
C210       C1089   1.487       .  S
O211       Cr229   1.993       .  S
O211        C219   1.264       .  A
O212       Cr229   1.998       .  S
O212        C213   1.260       .  A
C213        O214   1.260       .  A
C213       C1068   1.488       .  S
O214       Cr230   1.984       .  S
O215       Cr230   1.990       .  S
O215        C216   1.261       .  A
C216        O217   1.263       .  A
C216       C1224   1.487       .  S
O217       Cr231   1.992       .  S
O218       Cr231   1.973       .  S
O218        C219   1.258       .  A
C219       C1113   1.474       .  S
O220       Cr229   1.984       .  S
O220        C228   1.260       .  A
O221       Cr229   2.000       .  S
O221        C222   1.266       .  A
C222        O223   1.264       .  A
C222        C266   1.465       .  S
O223       Cr230   1.982       .  S
O224       Cr230   1.998       .  S
O224        C225   1.264       .  A
C225        O226   1.260       .  A
C225        C244   1.468   1_565  S
O226       Cr231   1.984       .  S
O227       Cr231   1.992       .  S
O227        C228   1.261       .  A
C228        C376   1.466       .  S
Cr229       O232   1.783       .  S
Cr230       O232   1.776       .  S
Cr231       O232   1.782       .  S
O233       Cr251   2.004       .  S
O233        C241   1.263       .  A
O234       Cr251   1.991       .  S
O234        C235   1.263       .  A
C235        O236   1.257       .  A
C235       C1209   1.475       .  S
O236       Cr252   1.978       .  S
O237       Cr252   1.988       .  S
O237        C238   1.262       .  A
C238        O239   1.266       .  A
C238       C1365   1.484       .  S
O239       Cr253   2.000       .  S
O240       Cr253   1.978       .  S
O240        C241   1.258       .  A
C241       C1308   1.489       .  S
O242       Cr251   1.998       .  S
O242        C250   1.263       .  A
O243       Cr251   1.988       .  S
O243        C244   1.261       .  A
C244        O245   1.263       .  A
O245       Cr252   1.994       .  S
O246       Cr252   1.984       .  S
O246        C247   1.262       .  A
C247        O248   1.258       .  A
C247        C288   1.460       .  S
O248       Cr253   1.987       .  S
O249       Cr253   1.988       .  S
O249        C250   1.265       .  A
C250        C357   1.465       .  S
Cr251       O254   1.780       .  S
Cr252       O254   1.780       .  S
Cr253       O254   1.776       .  S
O255       Cr273   1.995       .  S
O255        C263   1.262       .  A
O256       Cr273   1.988       .  S
O256        C257   1.262       .  A
C257        O258   1.263       .  A
C257       C1092   1.482       .  S
O258       Cr274   1.988       .  S
O259       Cr274   1.990       .  S
O259        C260   1.260       .  A
C260        O261   1.263       .  A
C260       C1053   1.482       .  S
O261       Cr275   1.994       .  S
O262       Cr275   1.987       .  S
O262        C263   1.259       .  A
C263       C1752   1.485       .  S
O264       Cr273   1.989       .  S
O264        C272   1.263       .  A
O265       Cr273   2.001       .  S
O265        C266   1.262       .  A
C266        O267   1.260       .  A
O267       Cr274   1.980       .  S
O268       Cr274   1.997       .  S
O268        C269   1.263       .  A
C269        O270   1.262       .  A
C269        C316   1.466       .  S
O270       Cr275   1.982       .  S
O271       Cr275   2.003       .  S
O271        C272   1.267       .  A
C272        C291   1.473   1_565  S
Cr273       O276   1.783       .  S
Cr274       O276   1.782       .  S
Cr275       O276   1.776       .  S
O277       Cr295   2.008       .  S
O277        C285   1.265       .  A
O278       Cr295   1.975       .  S
O278        C279   1.257       .  A
C279        O280   1.262       .  A
C279       C1392   1.485       .  S
O280       Cr296   1.995       .  S
O281       Cr296   1.983       .  S
O281        C282   1.261       .  A
C282        O283   1.262       .  A
C282       C1740   1.484       .  S
O283       Cr297   1.996       .  S
O284       Cr297   1.981       .  S
O284        C285   1.261       .  A
C285       C1041   1.494       .  S
O286       Cr295   1.984       .  S
O286        C294   1.259       .  A
O287       Cr295   1.988       .  S
O287        C288   1.264       .  A
C288        O289   1.260       .  A
O289       Cr296   1.984       .  S
O290       Cr296   1.989       .  S
O290        C291   1.260       .  A
C291        O292   1.264       .  A
O292       Cr297   1.999       .  S
O293       Cr297   1.997       .  S
O293        C294   1.267       .  A
C294        C335   1.465       .  S
Cr295       O298   1.780       .  S
Cr296       O298   1.782       .  S
Cr297       O298   1.778       .  S
O299       Cr317   1.991       .  S
O299        C307   1.265       .  A
O300       Cr317   1.989       .  S
O300        C301   1.259       .  A
C301        O302   1.260       .  A
C301       C1197   1.484       .  S
O302       Cr318   1.987       .  S
O303       Cr318   1.998       .  S
O303        C304   1.262       .  A
C304        O305   1.258       .  A
C304       C1560   1.485       .  S
O305       Cr319   1.981       .  S
O306       Cr319   1.978       .  S
O306        C307   1.261       .  A
C307       C1029   1.473       .  S
O308       Cr317   1.986       .  S
O308        C316   1.260       .  A
O309       Cr317   1.993       .  S
O309        C310   1.264       .  A
C310        O311   1.265       .  A
C310        C382   1.465       .  S
O311       Cr318   1.985       .  S
O312       Cr318   2.004       .  S
O312        C313   1.267       .  A
C313        O314   1.262       .  A
C313        C338   1.470   1_565  S
O314       Cr319   1.984       .  S
O315       Cr319   1.987       .  S
O315        C316   1.258       .  A
Cr317       O320   1.783       .  S
Cr318       O320   1.780       .  S
Cr319       O320   1.784       .  S
O321       Cr339   1.992       .  S
O321        C329   1.260       .  A
O322       Cr339   1.980       .  S
O322        C323   1.262       .  A
C323        O324   1.263       .  A
C323       C1020   1.492       .  S
O324       Cr340   2.002       .  S
O325       Cr340   1.982       .  S
O325        C326   1.261       .  A
C326        O327   1.262       .  A
C326       C1008   1.485       .  S
O327       Cr341   1.992       .  S
O328       Cr341   1.989       .  S
O328        C329   1.261       .  A
C329       C1545   1.483       .  S
O330       Cr339   1.998       .  S
O330        C338   1.265       .  A
O331       Cr339   1.988       .  S
O331        C332   1.264       .  A
C332        O333   1.262       .  A
C332        C360   1.468       .  S
O333       Cr340   1.995       .  S
O334       Cr340   1.992       .  S
O334        C335   1.265       .  A
C335        O336   1.260       .  A
O336       Cr341   1.990       .  S
O337       Cr341   1.988       .  S
O337        C338   1.261       .  A
Cr339       O342   1.777       .  S
Cr340       O342   1.780       .  S
Cr341       O342   1.780       .  S
O343       Cr361   2.002       .  S
O343        C351   1.261       .  A
O344       Cr361   1.989       .  S
O344        C345   1.264       .  A
C345        O346   1.264       .  A
C345       C1836   1.493       .  S
O346       Cr362   1.998       .  S
O347       Cr362   1.972       .  S
O347        C348   1.256       .  A
C348        O349   1.265       .  A
C348       C1332   1.492       .  S
O349       Cr363   2.007       .  S
O350       Cr363   1.974       .  S
O350        C351   1.260       .  A
C351        C996   1.491       .  S
O352       Cr361   1.996       .  S
O352        C360   1.263       .  A
O353       Cr361   1.994       .  S
O353        C354   1.262       .  A
C354        O355   1.261       .  A
C354        C379   1.471   1_545  S
O355       Cr362   1.990       .  S
O356       Cr362   1.996       .  S
O356        C357   1.267       .  A
C357        O358   1.260       .  A
O358       Cr363   1.985       .  S
O359       Cr363   1.989       .  S
O359        C360   1.264       .  A
Cr361       O364   1.783       .  S
Cr362       O364   1.779       .  S
Cr363       O364   1.779       .  S
O365       Cr383   1.995       .  S
O365        C373   1.264       .  A
O366       Cr383   1.988       .  S
O366        C367   1.259       .  A
C367        O368   1.262       .  A
C367       C1128   1.481       .  S
O368       Cr384   1.994       .  S
O369       Cr384   1.979       .  S
O369        C370   1.259       .  A
C370        O371   1.263       .  A
C370       C1848   1.478       .  S
O371       Cr385   2.000       .  S
O372       Cr385   1.973       .  S
O372        C373   1.258       .  A
C373       C1176   1.473       .  S
O374       Cr383   1.978       .  S
O374        C382   1.260       .  A
O375       Cr383   2.003       .  S
O375        C376   1.265       .  A
C376        O377   1.263       .  A
O377       Cr384   1.979       .  S
O378       Cr384   2.005       .  S
O378        C379   1.267       .  A
C379        O380   1.260       .  A
O380       Cr385   1.984       .  S
O381       Cr385   2.001       .  S
O381        C382   1.263       .  A
Cr383       O386   1.780       .  S
Cr384       O386   1.773       .  S
Cr385       O386   1.783       .  S
C387        C388   1.353       .  D
C387       C1032   1.484       .  S
C387       C1056   1.494       .  S
C388        C969   1.487       .  S
C388        C981   1.494       .  S
C389        C390   1.355       .  D
C389        C945   1.498       .  S
C389        C960   1.490       .  S
C390        C921   1.487       .  S
C390        C933   1.496       .  S
C391        C392   1.355       .  D
C391        C993   1.492       .  S
C391       C1017   1.493       .  S
C392        C897   1.492       .  S
C392        C912   1.491       .  S
O393       Cr411   1.988       .  S
O393        C401   1.261       .  A
O394       Cr411   1.991       .  S
O394        C395   1.265       .  A
C395        O396   1.263       .  A
C395       C1593   1.483       .  S
O396       Cr412   1.993       .  S
O397       Cr412   1.985       .  S
O397        C398   1.259       .  A
C398        O399   1.262       .  A
C398        C888   1.487       .  S
O399       Cr413   2.000       .  S
O400       Cr413   1.992       .  S
O400        C401   1.262       .  A
C401       C1101   1.486       .  S
O402       Cr411   1.993       .  S
O402        C410   1.262       .  A
O403       Cr411   1.987       .  S
O403        C404   1.261       .  A
C404        O405   1.259       .  A
C404        C429   1.466   1_554  S
O405       Cr412   1.991       .  S
O406       Cr412   1.984       .  S
O406        C407   1.262       .  A
C407        O408   1.267       .  A
C407        C520   1.470       .  S
O408       Cr413   2.006       .  S
O409       Cr413   1.991       .  S
O409        C410   1.265       .  A
C410        C451   1.470       .  S
Cr411       O414   1.780       .  S
Cr412       O414   1.783       .  S
Cr413       O414   1.783       .  S
O415       Cr433   1.984       .  S
O415        C423   1.261       .  A
O416       Cr433   1.978       .  S
O416        C417   1.261       .  A
C417        O418   1.264       .  A
C417        C873   1.491       .  S
O418       Cr434   2.007       .  S
O419       Cr434   1.978       .  S
O419        C420   1.256       .  A
C420        O421   1.261       .  A
C420       C1608   1.491       .  S
O421       Cr435   2.000       .  S
O422       Cr435   1.983       .  S
O422        C423   1.263       .  A
C423       C1185   1.474       .  S
O424       Cr433   1.988       .  S
O424        C432   1.258       .  A
O425       Cr433   1.987       .  S
O425        C426   1.262       .  A
C426        O427   1.263       .  A
C426        C492   1.468       .  S
O427       Cr434   1.998       .  S
O428       Cr434   1.990       .  S
O428        C429   1.267       .  A
C429        O430   1.264       .  A
O430       Cr435   1.992       .  S
O431       Cr435   1.990       .  S
O431        C432   1.262       .  A
C432        C470   1.469       .  S
Cr433       O436   1.782       .  S
Cr434       O436   1.781       .  S
Cr435       O436   1.780       .  S
O437       Cr455   1.984       .  S
O437        C445   1.260       .  A
O438       Cr455   1.985       .  S
O438        C439   1.260       .  A
C439        O440   1.262       .  A
C439       C1644   1.486       .  S
O440       Cr456   1.997       .  S
O441       Cr456   1.985       .  S
O441        C442   1.261       .  A
C442        O443   1.258       .  A
C442       C1077   1.479       .  S
O443       Cr457   1.985       .  S
O444       Cr457   1.994       .  S
O444        C445   1.264       .  A
C445       C1284   1.478       .  S
O446       Cr455   1.994       .  S
O446        C454   1.261       .  A
O447       Cr455   1.978       .  S
O447        C448   1.261       .  A
C448        O449   1.264       .  A
C448        C473   1.462   1_554  S
O449       Cr456   2.000       .  S
O450       Cr456   1.984       .  S
O450        C451   1.263       .  A
C451        O452   1.265       .  A
O452       Cr457   2.004       .  S
O453       Cr457   1.979       .  S
O453        C454   1.260       .  A
C454        C561   1.462       .  S
Cr455       O458   1.781       .  S
Cr456       O458   1.779       .  S
Cr457       O458   1.782       .  S
O459       Cr477   1.989       .  S
O459        C467   1.260       .  A
O460       Cr477   2.000       .  S
O460        C461   1.265       .  A
C461        O462   1.261       .  A
C461       C1164   1.484       .  S
O462       Cr478   1.987       .  S
O463       Cr478   1.986       .  S
O463        C464   1.261       .  A
C464        O465   1.263       .  A
C464       C1653   1.486       .  S
O465       Cr479   1.998       .  S
O466       Cr479   1.997       .  S
O466        C467   1.262       .  A
C467        C936   1.487       .  S
O468       Cr477   2.010       .  S
O468        C476   1.268       .  A
O469       Cr477   1.991       .  S
O469        C470   1.264       .  A
C470        O471   1.260       .  A
O471       Cr478   1.991       .  S
O472       Cr478   1.979       .  S
O472        C473   1.260       .  A
C473        O474   1.263       .  A
O474       Cr479   1.998       .  S
O475       Cr479   1.992       .  S
O475        C476   1.263       .  A
C476        C536   1.479       .  S
Cr477       O480   1.780       .  S
Cr478       O480   1.783       .  S
Cr479       O480   1.785       .  S
O481       Cr499   1.991       .  S
O481        C489   1.263       .  A
O482       Cr499   1.982       .  S
O482        C483   1.260       .  A
C483        O484   1.265       .  A
C483        C861   1.479       .  S
O484       Cr500   2.001       .  S
O485       Cr500   1.975       .  S
O485        C486   1.258       .  A
C486        O487   1.265       .  A
C486        C909   1.477       .  S
O487       Cr501   1.999       .  S
O488       Cr501   1.990       .  S
O488        C489   1.260       .  A
C489       C1704   1.482       .  S
O490       Cr499   1.984       .  S
O490        C498   1.264       .  A
O491       Cr499   2.003       .  S
O491        C492   1.265       .  A
C492        O493   1.257       .  A
O493       Cr500   1.981       .  S
O494       Cr500   1.993       .  S
O494        C495   1.261       .  A
C495        O496   1.260       .  A
C495        C542   1.459       .  S
O496       Cr501   1.977       .  S
O497       Cr501   2.008       .  S
O497        C498   1.266       .  A
C498        C514   1.471   1_556  S
Cr499       O502   1.776       .  S
Cr500       O502   1.783       .  S
Cr501       O502   1.780       .  S
O503       Cr521   1.996       .  S
O503        C511   1.265       .  A
O504       Cr521   1.978       .  S
O504        C505   1.259       .  A
C505        O506   1.264       .  A
C505       C1692   1.477       .  S
O506       Cr522   1.994       .  S
O507       Cr522   1.987       .  S
O507        C508   1.260       .  A
C508        O509   1.263       .  A
C508       C1380   1.486       .  S
O509       Cr523   2.003       .  S
O510       Cr523   1.983       .  S
O510        C511   1.261       .  A
C511        C852   1.480       .  S
O512       Cr521   1.983       .  S
O512        C520   1.260       .  A
O513       Cr521   1.999       .  S
O513        C514   1.263       .  A
C514        O515   1.263       .  A
O515       Cr522   1.989       .  S
O516       Cr522   2.005       .  S
O516        C517   1.267       .  A
C517        O518   1.263       .  A
C517        C564   1.471       .  S
O518       Cr523   1.986       .  S
O519       Cr523   2.005       .  S
O519        C520   1.265       .  A
Cr521       O524   1.779       .  S
Cr522       O524   1.778       .  S
Cr523       O524   1.779       .  S
O525       Cr543   1.996       .  S
O525        C533   1.264       .  A
O526       Cr543   1.986       .  S
O526        C527   1.258       .  A
C527        O528   1.262       .  A
C527        C924   1.481       .  S
O528       Cr544   1.988       .  S
O529       Cr544   1.982       .  S
O529        C530   1.261       .  A
C530        O531   1.264       .  A
C530       C1245   1.478       .  S
O531       Cr545   1.994       .  S
O532       Cr545   1.982       .  S
O532        C533   1.259       .  A
C533        C900   1.479       .  S
O534       Cr543   1.980       .  S
O534        C542   1.262       .  A
O535       Cr543   2.013       .  S
O535        C536   1.269       .  A
C536        O537   1.265       .  A
O537       Cr544   1.991       .  S
O538       Cr544   2.002       .  S
O538        C539   1.264       .  A
C539        O540   1.260       .  A
C539        C558   1.471   1_556  S
O540       Cr545   1.985       .  S
O541       Cr545   1.989       .  S
O541        C542   1.262       .  A
Cr543       O546   1.777       .  S
Cr544       O546   1.775       .  S
Cr545       O546   1.780       .  S
O547       Cr565   1.981       .  S
O547        C555   1.260       .  A
O548       Cr565   1.998       .  S
O548        C549   1.264       .  A
C549        O550   1.259       .  A
C549       C1233   1.489       .  S
O550       Cr566   1.988       .  S
O551       Cr566   1.992       .  S
O551        C552   1.263       .  A
C552        O553   1.260       .  A
C552       C1260   1.476       .  S
O553       Cr567   1.982       .  S
O554       Cr567   1.994       .  S
O554        C555   1.266       .  A
C555       C1353   1.483       .  S
O556       Cr565   2.006       .  S
O556        C564   1.264       .  A
O557       Cr565   1.985       .  S
O557        C558   1.263       .  A
C558        O559   1.268       .  A
O559       Cr566   2.007       .  S
O560       Cr566   1.981       .  S
O560        C561   1.262       .  A
C561        O562   1.262       .  A
O562       Cr567   1.992       .  S
O563       Cr567   1.984       .  S
O563        C564   1.259       .  A
Cr565       O568   1.776       .  S
Cr566       O568   1.775       .  S
Cr567       O568   1.777       .  S
C569        C570   1.351       .  D
C569        C825   1.488       .  S
C569        C837   1.489       .  S
C570        C864   1.492       .  S
C570        C876   1.486       .  S
C571        C572   1.358       .  D
C571       C1404   1.489   1_655  S
C571       C1449   1.503       .  S
C572        C801   1.495   1_655  S
C572        C813   1.489       .  S
C573        C574   1.351       .  D
C573       C1005   1.486       .  S
C573       C1044   1.489       .  S
C574        C777   1.487       .  S
C574        C789   1.492       .  S
C575        C576   1.353       .  D
C575        C753   1.498       .  S
C575        C768   1.484       .  S
C576        C849   1.486       .  S
C576        C885   1.493       .  S
O577       Cr595   2.001       .  S
O577        C585   1.263       .  A
O578       Cr595   1.983       .  S
O578        C579   1.260       .  A
C579        O580   1.264       .  A
C579       C1788   1.479       .  S
O580       Cr596   1.995       .  S
O581       Cr596   1.990       .  S
O581        C582   1.261       .  A
C582        O583   1.262       .  A
C582       C1296   1.485       .  S
O583       Cr597   1.991       .  S
O584       Cr597   1.988       .  S
O584        C585   1.261       .  A
C585       C1140   1.487       .  S
O586       Cr595   1.994       .  S
O586        C594   1.265       .  A
O587       Cr595   2.007       .  S
O587        C588   1.265       .  A
C588        O589   1.260       .  A
C588        C616   1.480   1_455  S
O589       Cr596   1.993       .  S
O590       Cr596   1.991       .  S
O590        C591   1.262       .  A
C591        O592   1.264       .  A
C591        C701   1.465       .  S
O592       Cr597   1.986       .  S
O593       Cr597   2.007       .  S
O593        C594   1.266       .  A
C594        C660   1.479       .  S
Cr595       O598   1.782       .  S
Cr596       O598   1.784       .  S
Cr597       O598   1.780       .  S
O599       Cr617   2.000       .  S
O599        C607   1.260       .  A
O600       Cr617   1.987       .  S
O600        C601   1.263       .  A
C601        O602   1.259       .  A
C601        C972   1.475       .  S
O602       Cr618   1.981       .  S
O603       Cr618   1.979       .  S
O603        C604   1.259       .  A
C604        O605   1.264       .  A
C604        C765   1.485       .  S
O605       Cr619   1.996       .  S
O606       Cr619   1.981       .  S
O606        C607   1.259       .  A
C607       C1797   1.493       .  S
O608       Cr617   2.008       .  S
O608        C616   1.269       .  A
O609       Cr617   1.992       .  S
O609        C610   1.264       .  A
C610        O611   1.259       .  A
C610        C632   1.466       .  S
O611       Cr618   1.983       .  S
O612       Cr618   1.987       .  S
O612        C613   1.261       .  A
C613        O614   1.263       .  A
C613        C676   1.468       .  S
O614       Cr619   1.993       .  S
O615       Cr619   1.996       .  S
O615        C616   1.267       .  A
Cr617       O620   1.779       .  S
Cr618       O620   1.783       .  S
Cr619       O620   1.776       .  S
O621       Cr639   1.993       .  S
O621        C629   1.262       .  A
O622       Cr639   1.992       .  S
O622        C623   1.262       .  A
C623        O624   1.260       .  A
C623        C984   1.484       .  S
O624       Cr640   1.988       .  S
O625       Cr640   1.991       .  S
O625        C626   1.264       .  A
C626        O627   1.261       .  A
C626       C1512   1.477       .  S
O627       Cr641   1.983       .  S
O628       Cr641   1.987       .  S
O628        C629   1.260       .  A
C629        C840   1.485       .  S
O630       Cr639   2.000       .  S
O630        C638   1.266       .  A
O631       Cr639   1.983       .  S
O631        C632   1.264       .  A
C632        O633   1.264       .  A
O633       Cr640   1.999       .  S
O634       Cr640   1.978       .  S
O634        C635   1.259       .  A
C635        O636   1.258       .  A
C635        C657   1.454   1_655  S
O636       Cr641   1.982       .  S
O637       Cr641   1.987       .  S
O637        C638   1.260       .  A
C638        C720   1.469       .  S
Cr639       O642   1.772       .  S
Cr640       O642   1.779       .  S
Cr641       O642   1.780       .  S
O643       Cr661   1.980       .  S
O643        C651   1.257       .  A
O644       Cr661   2.003       .  S
O644        C645   1.264       .  A
C645        O646   1.259       .  A
C645        C957   1.478       .  S
O646       Cr662   1.980       .  S
O647       Cr662   1.995       .  S
O647        C648   1.265       .  A
C648        O649   1.261       .  A
C648       C1497   1.479       .  S
O649       Cr663   1.986       .  S
O650       Cr663   1.987       .  S
O650        C651   1.263       .  A
C651       C1149   1.476       .  S
O652       Cr661   2.019       .  S
O652        C660   1.269       .  A
O653       Cr661   1.980       .  S
O653        C654   1.263       .  A
C654        O655   1.265       .  A
C654        C745   1.469       .  S
O655       Cr662   2.007       .  S
O656       Cr662   1.973       .  S
O656        C657   1.259       .  A
C657        O658   1.260       .  A
O658       Cr663   1.988       .  S
O659       Cr663   1.985       .  S
O659        C660   1.260       .  A
Cr661       O664   1.778       .  S
Cr662       O664   1.778       .  S
Cr663       O664   1.781       .  S
O665       Cr683   1.985       .  S
O665        C673   1.264       .  A
O666       Cr683   1.988       .  S
O666        C667   1.260       .  A
C667        O668   1.263       .  A
C667        C756   1.488       .  S
O668       Cr684   2.002       .  S
O669       Cr684   1.996       .  S
O669        C670   1.264       .  A
C670        O671   1.259       .  A
C670        C780   1.486       .  S
O671       Cr685   1.982       .  S
O672       Cr685   1.993       .  S
O672        C673   1.262       .  A
C673        C816   1.484       .  S
O674       Cr683   1.985       .  S
O674        C682   1.261       .  A
O675       Cr683   1.994       .  S
O675        C676   1.265       .  A
C676        O677   1.261       .  A
O677       Cr684   1.989       .  S
O678       Cr684   1.994       .  S
O678        C679   1.263       .  A
C679        O680   1.261       .  A
C679        C726   1.457       .  S
O680       Cr685   1.981       .  S
O681       Cr685   1.987       .  S
O681        C682   1.259       .  A
C682        C704   1.461   1_655  S
Cr683       O686   1.773       .  S
Cr684       O686   1.779       .  S
Cr685       O686   1.779       .  S
O687       Cr705   1.990       .  S
O687        C695   1.262       .  A
O688       Cr705   1.980       .  S
O688        C689   1.260       .  A
C689        O690   1.265       .  A
C689       C1320   1.479       .  S
O690       Cr706   2.001       .  S
O691       Cr706   1.988       .  S
O691        C692   1.261       .  A
C692        O693   1.262       .  A
C692       C1272   1.479       .  S
O693       Cr707   1.984       .  S
O694       Cr707   2.001       .  S
O694        C695   1.262       .  A
C695        C804   1.490       .  S
O696       Cr705   1.975       .  S
O696        C704   1.260       .  A
O697       Cr705   1.992       .  S
O697        C698   1.263       .  A
C698        O699   1.260       .  A
C698        C748   1.465       .  S
O699       Cr706   1.988       .  S
O700       Cr706   1.998       .  S
O700        C701   1.263       .  A
C701        O702   1.262       .  A
O702       Cr707   1.983       .  S
O703       Cr707   2.002       .  S
O703        C704   1.264       .  A
Cr705       O708   1.772       .  S
Cr706       O708   1.779       .  S
Cr707       O708   1.776       .  S
O709       Cr727   1.979       .  S
O709        C717   1.256       .  A
O710       Cr727   1.980       .  S
O710        C711   1.262       .  A
C711        O712   1.268       .  A
C711        C828   1.483       .  S
O712       Cr728   2.005       .  S
O713       Cr728   1.978       .  S
O713        C714   1.257       .  A
C714        O715   1.263       .  A
C714       C1896   1.478       .  S
O715       Cr729   1.994       .  S
O716       Cr729   2.007       .  S
O716        C717   1.265       .  A
C717        C792   1.492       .  S
O718       Cr727   1.980       .  S
O718        C726   1.265       .  A
O719       Cr727   1.988       .  S
O719        C720   1.260       .  A
C720        O721   1.260       .  A
O721       Cr728   1.992       .  S
O722       Cr728   2.004       .  S
O722        C723   1.267       .  A
C723        O724   1.262       .  A
C723        C742   1.477   1_655  S
O724       Cr729   1.992       .  S
O725       Cr729   1.995       .  S
O725        C726   1.264       .  A
Cr727       O730   1.776       .  S
Cr728       O730   1.779       .  S
Cr729       O730   1.778       .  S
O731       Cr749   1.992       .  S
O731        C739   1.263       .  A
O732       Cr749   1.982       .  S
O732        C733   1.258       .  A
C733        O734   1.261       .  A
C733       C1881   1.492       .  S
O734       Cr750   2.000       .  S
O735       Cr750   1.991       .  S
O735        C736   1.263       .  A
C736        O737   1.259       .  A
C736        C948   1.474       .  S
O737       Cr751   1.978       .  S
O738       Cr751   1.990       .  S
O738        C739   1.263       .  A
C739       C1341   1.486       .  S
O740       Cr749   1.994       .  S
O740        C748   1.262       .  A
O741       Cr749   1.993       .  S
O741        C742   1.267       .  A
C742        O743   1.269       .  A
O743       Cr750   2.006       .  S
O744       Cr750   1.995       .  S
O744        C745   1.264       .  A
C745        O746   1.260       .  A
O746       Cr751   1.985       .  S
O747       Cr751   1.982       .  S
O747        C748   1.258       .  A
Cr749       O752   1.779       .  S
Cr750       O752   1.779       .  S
Cr751       O752   1.782       .  S
C753        C754   1.406       .  A
C753        C758   1.414       .  A
C754        C755   1.406       .  A
C754        H759   1.084       .  S
C755        C756   1.414       .  A
C755        C762   1.444       .  S
C756        C757   1.402       .  A
C757        C758   1.401       .  A
C757        H760   1.085       .  S
C758        C761   1.441       .  S
C761        N763   1.157       .  T
C762        N764   1.157       .  T
C765        C766   1.406       .  A
C765        C770   1.421       .  A
C766        C767   1.402       .  A
C766        H771   1.084       .  S
C767        C768   1.407       .  A
C767        C774   1.440       .  S
C768        C769   1.398       .  A
C769        C770   1.393       .  A
C769        H772   1.085       .  S
C770        C773   1.446       .  S
C773        N775   1.158       .  T
C774        N776   1.157       .  T
C777        C778   1.396       .  A
C777        C782   1.414       .  A
C778        C779   1.395       .  A
C778        H783   1.085       .  S
C779        C780   1.420       .  A
C779        C786   1.443       .  S
C780        C781   1.403       .  A
C781        C782   1.401       .  A
C781        H784   1.084       .  S
C782        C785   1.441       .  S
C785        N787   1.157       .  T
C786        N788   1.156       .  T
C789        C790   1.397       .  A
C789        C794   1.415       .  A
C790        C791   1.396       .  A
C790        H795   1.083       .  S
C791        C792   1.422       .  A
C791        C798   1.444       .  S
C792        C793   1.404       .  A
C793        C794   1.405       .  A
C793        H796   1.084       .  S
C794        C797   1.441       .  S
C797        N799   1.157       .  T
C798        N800   1.157       .  T
C801        C802   1.398       .  A
C801        C806   1.410       .  A
C802        C803   1.393       .  A
C802        H807   1.083       .  S
C803        C804   1.415       .  A
C803        C810   1.441       .  S
C804        C805   1.408       .  A
C805        C806   1.409       .  A
C805        H808   1.084       .  S
C806        C809   1.440       .  S
C809        N811   1.157       .  T
C810        N812   1.156       .  T
C813        C814   1.407       .  A
C813        C818   1.412       .  A
C814        C815   1.406       .  A
C814        H819   1.085       .  S
C815        C816   1.413       .  A
C815        C822   1.441       .  S
C816        C817   1.402       .  A
C817        C818   1.392       .  A
C817        H820   1.086       .  S
C818        C821   1.441       .  S
C821        N823   1.157       .  T
C822        N824   1.156       .  T
C825        C826   1.403       .  A
C825        C830   1.410       .  A
C826        C827   1.400       .  A
C826        H831   1.084       .  S
C827        C828   1.413       .  A
C827        C834   1.442       .  S
C828        C829   1.404       .  A
C829        C830   1.399       .  A
C829        H832   1.085       .  S
C830        C833   1.440       .  S
C833        N835   1.157       .  T
C834        N836   1.157       .  T
C837        C838   1.400       .  A
C837        C842   1.411       .  A
C838        C839   1.397       .  A
C838        H843   1.084       .  S
C839        C840   1.418       .  A
C839        C846   1.445       .  S
C840        C841   1.404       .  A
C841        C842   1.402       .  A
C841        H844   1.084       .  S
C842        C845   1.440       .  S
C845        N847   1.157       .  T
C846        N848   1.157       .  T
C849        C850   1.403       .  A
C849        C854   1.409       .  A
C850        C851   1.399       .  A
C850        H855   1.082       .  S
C851        C852   1.412       .  A
C851        C858   1.443       .  S
C852        C853   1.405       .  A
C853        C854   1.399       .  A
C853        H856   1.085       .  S
C854        C857   1.442       .  S
C857        N859   1.157       .  T
C858        N860   1.157       .  T
C861        C862   1.399       .  A
C861        C866   1.413       .  A
C862        C863   1.398       .  A
C862        H867   1.085       .  S
C863        C864   1.415       .  A
C863        C870   1.443       .  S
C864        C865   1.403       .  A
C865        C866   1.404       .  A
C865        H868   1.084       .  S
C866        C869   1.443       .  S
C869        N871   1.157       .  T
C870        N872   1.157       .  T
C873        C874   1.408       .  A
C873        C878   1.414       .  A
C874        C875   1.391       .  A
C874        H879   1.085       .  S
C875        C876   1.408       .  A
C875        C882   1.444       .  S
C876        C877   1.402       .  A
C877        C878   1.405       .  A
C877        H880   1.084       .  S
C878        C881   1.437       .  S
C881        N883   1.155       .  T
C882        N884   1.157       .  T
C885        C886   1.399       .  A
C885        C890   1.413       .  A
C886        C887   1.397       .  A
C886        H891   1.083       .  S
C887        C888   1.416       .  A
C887        C894   1.445       .  S
C888        C889   1.405       .  A
C889        C890   1.406       .  A
C889        H892   1.084       .  S
C890        C893   1.442       .  S
C893        N895   1.157       .  T
C894        N896   1.157       .  T
C897        C898   1.406       .  A
C897        C902   1.412       .  A
C898        C899   1.402       .  A
C898        H903   1.084       .  S
C899        C900   1.411       .  A
C899        C906   1.444       .  S
C900        C901   1.402       .  A
C901        C902   1.399       .  A
C901        H904   1.085       .  S
C902        C905   1.440       .  S
C905        N907   1.156       .  T
C906        N908   1.157       .  T
C909        C910   1.401       .  A
C909        C914   1.411       .  A
C910        C911   1.399       .  A
C910        H915   1.085       .  S
C911        C912   1.412       .  A
C911        C918   1.439       .  S
C912        C913   1.406       .  A
C913        C914   1.401       .  A
C913        H916   1.084       .  S
C914        C917   1.444       .  S
C917        N919   1.157       .  T
C918        N920   1.156       .  T
C921        C922   1.406       .  A
C921        C926   1.411       .  A
C922        C923   1.405       .  A
C922        H927   1.084       .  S
C923        C924   1.414       .  A
C923        C930   1.443       .  S
C924        C925   1.402       .  A
C925        C926   1.392       .  A
C925        H928   1.085       .  S
C926        C929   1.443       .  S
C929        N931   1.157       .  T
C930        N932   1.157       .  T
C933        C934   1.405       .  A
C933        C938   1.408       .  A
C934        C935   1.401       .  A
C934        H939   1.084       .  S
C935        C936   1.413       .  A
C935        C942   1.443       .  S
C936        C937   1.408       .  A
C937        C938   1.404       .  A
C937        H940   1.085       .  S
C938        C941   1.441       .  S
C941        N943   1.157       .  T
C942        N944   1.157       .  T
C945        C946   1.409       .  A
C945        C950   1.413       .  A
C946        C947   1.400       .  A
C946        H951   1.084       .  S
C947        C948   1.408       .  A
C947        C954   1.445       .  S
C948        C949   1.400       .  A
C949        C950   1.400       .  A
C949        H952   1.085       .  S
C950        C953   1.437       .  S
C953        N955   1.157       .  T
C954        N956   1.157       .  T
C957        C958   1.401       .  A
C957        C962   1.411       .  A
C958        C959   1.399       .  A
C958        H963   1.085       .  S
C959        C960   1.412       .  A
C959        C966   1.443       .  S
C960        C961   1.403       .  A
C961        C962   1.402       .  A
C961        H964   1.084       .  S
C962        C965   1.441       .  S
C965        N967   1.156       .  T
C966        N968   1.157       .  T
C969        C970   1.406       .  A
C969        C974   1.410       .  A
C970        C971   1.401       .  A
C970        H975   1.084       .  S
C971        C972   1.411       .  A
C971        C978   1.444       .  S
C972        C973   1.402       .  A
C973        C974   1.396       .  A
C973        H976   1.085       .  S
C974        C977   1.441       .  S
C977        N979   1.157       .  T
C978        N980   1.157       .  T
C981        C982   1.404       .  A
C981        C986   1.412       .  A
C982        C983   1.401       .  A
C982        H987   1.084       .  S
C983        C984   1.414       .  A
C983        C990   1.444       .  S
C984        C985   1.403       .  A
C985        C986   1.402       .  A
C985        H988   1.085       .  S
C986        C989   1.440       .  S
C989        N991   1.157       .  T
C990        N992   1.157       .  T
C993        C994   1.406       .  A
C993        C998   1.410       .  A
C994        C995   1.409       .  A
C994        H999   1.083       .  S
C995        C996   1.415       .  A
C995       C1002   1.442       .  S
C996        C997   1.406       .  A
C997        C998   1.392       .  A
C997       H1000   1.085       .  S
C998       C1001   1.444       .  S
C1001      N1003   1.158       .  T
C1002      N1004   1.157       .  T
C1005      C1006   1.404       .  A
C1005      C1010   1.407       .  A
C1006      C1007   1.401       .  A
C1006      H1011   1.078       .  S
C1007      C1008   1.412       .  A
C1007      C1014   1.443       .  S
C1008      C1009   1.409       .  A
C1009      C1010   1.397       .  A
C1009      H1012   1.085       .  S
C1010      C1013   1.444       .  S
C1013      N1015   1.157       .  T
C1014      N1016   1.157       .  T
C1017      C1018   1.407       .  A
C1017      C1022   1.411       .  A
C1018      C1019   1.410       .  A
C1018      H1023   1.083       .  S
C1019      C1020   1.415       .  A
C1019      C1026   1.443       .  S
C1020      C1021   1.405       .  A
C1021      C1022   1.392       .  A
C1021      H1024   1.085       .  S
C1022      C1025   1.444       .  S
C1025      N1027   1.158       .  T
C1026      N1028   1.157       .  T
C1029      C1030   1.401       .  A
C1029      C1034   1.412       .  A
C1030      C1031   1.397       .  A
C1030      H1035   1.085       .  S
C1031      C1032   1.412       .  A
C1031      C1038   1.442       .  S
C1032      C1033   1.401       .  A
C1033      C1034   1.399       .  A
C1033      H1036   1.083       .  S
C1034      C1037   1.444       .  S
C1037      N1039   1.157       .  T
C1038      N1040   1.157       .  T
C1041      C1042   1.411       .  A
C1041      C1046   1.412       .  A
C1042      C1043   1.399       .  A
C1042      H1047   1.085       .  S
C1043      C1044   1.406       .  A
C1043      C1050   1.443       .  S
C1044      C1045   1.400       .  A
C1045      C1046   1.400       .  A
C1045      H1048   1.079       .  S
C1046      C1049   1.436       .  S
C1049      N1051   1.155       .  T
C1050      N1052   1.157       .  T
C1053      C1054   1.403       .  A
C1053      C1058   1.410       .  A
C1054      C1055   1.405       .  A
C1054      H1059   1.084       .  S
C1055      C1056   1.415       .  A
C1055      C1062   1.443       .  S
C1056      C1057   1.399       .  A
C1057      C1058   1.397       .  A
C1057      H1060   1.078       .  S
C1058      C1061   1.441       .  S
C1061      N1063   1.156       .  T
C1062      N1064   1.157       .  T
C1065      C1066   1.410       .  A
C1065      C1070   1.412       .  A
C1066      C1067   1.409       .  A
C1066      H1071   1.084       .  S
C1067      C1068   1.413       .  A
C1067      C1074   1.443       .  S
C1068      C1069   1.402       .  A
C1069      C1070   1.396       .  A
C1069      H1072   1.085       .  S
C1070      C1073   1.439       .  S
C1073      N1075   1.157       .  T
C1074      N1076   1.157       .  T
C1077      C1078   1.402       .  A
C1077      C1082   1.411       .  A
C1078      C1079   1.395       .  A
C1078      H1083   1.086       .  S
C1079      C1080   1.412       .  A
C1079      C1086   1.440       .  S
C1080      C1081   1.406       .  A
C1081      C1082   1.403       .  A
C1081      H1084   1.083       .  S
C1082      C1085   1.443       .  S
C1085      N1087   1.157       .  T
C1086      N1088   1.157       .  T
C1089      C1090   1.400       .  A
C1089      C1094   1.409       .  A
C1090      C1091   1.394       .  A
C1090      H1095   1.082       .  S
C1091      C1092   1.415       .  A
C1091      C1098   1.445       .  S
C1092      C1093   1.406       .  A
C1093      C1094   1.404       .  A
C1093      H1096   1.084       .  S
C1094      C1097   1.441       .  S
C1097      N1099   1.157       .  T
C1098      N1100   1.157       .  T
C1101      C1102   1.406       .  A
C1101      C1106   1.414       .  A
C1102      C1103   1.402       .  A
C1102      H1107   1.085       .  S
C1103      C1104   1.412       .  A
C1103      C1110   1.443       .  S
C1104      C1105   1.403       .  A
C1105      C1106   1.401       .  A
C1105      H1108   1.081       .  S
C1106      C1109   1.443       .  S
C1109      N1111   1.157       .  T
C1110      N1112   1.157       .  T
C1113      C1114   1.404       .  A
C1113      C1118   1.411       .  A
C1114      C1115   1.398       .  A
C1114      H1119   1.085       .  S
C1115      C1116   1.409       .  A
C1115      C1122   1.442       .  S
C1116      C1117   1.403       .  A
C1117      C1118   1.397       .  A
C1117      H1120   1.084       .  S
C1118      C1121   1.445       .  S
C1121      N1123   1.157       .  T
C1122      N1124   1.157       .  T
C1125      C1126   1.409       .  A
C1125      C1130   1.413       .  A
C1126      C1127   1.405       .  A
C1126      H1131   1.083       .  S
C1127      C1128   1.410       .  A
C1127      C1134   1.444       .  S
C1128      C1129   1.401       .  A
C1129      C1130   1.399       .  A
C1129      H1132   1.085       .  S
C1130      C1133   1.438       .  S
C1133      N1135   1.156       .  T
C1134      N1136   1.157       .  T
C1137      C1138   1.406       .  A
C1137      C1142   1.409       .  A
C1138      C1139   1.400       .  A
C1138      H1143   1.083       .  S
C1139      C1140   1.411       .  A
C1139      C1146   1.444       .  S
C1140      C1141   1.408       .  A
C1141      C1142   1.405       .  A
C1141      H1144   1.085       .  S
C1142      C1145   1.441       .  S
C1145      N1147   1.157       .  T
C1146      N1148   1.157       .  T
C1149      C1150   1.400       .  A
C1149      C1154   1.412       .  A
C1150      C1151   1.390       .  A
C1150      H1155   1.086       .  S
C1151      C1152   1.412       .  A
C1151      C1158   1.441       .  S
C1152      C1153   1.406       .  A
C1153      C1154   1.403       .  A
C1153      H1156   1.084       .  S
C1154      C1157   1.443       .  S
C1157      N1159   1.157       .  T
C1158      N1160   1.157       .  T
C1161      C1162   1.403       .  A
C1161      C1166   1.413       .  A
C1162      C1163   1.402       .  A
C1162      H1167   1.083       .  S
C1163      C1164   1.413       .  A
C1163      C1170   1.442       .  S
C1164      C1165   1.403       .  A
C1165      C1166   1.403       .  A
C1165      H1168   1.085       .  S
C1166      C1169   1.442       .  S
C1169      N1171   1.157       .  T
C1170      N1172   1.157       .  T
C1173      C1174   1.402       .  A
C1173      C1178   1.409       .  A
C1174      C1175   1.397       .  A
C1174      H1179   1.084       .  S
C1175      C1176   1.411       .  A
C1175      C1182   1.444       .  S
C1176      C1177   1.402       .  A
C1177      C1178   1.397       .  A
C1177      H1180   1.085       .  S
C1178      C1181   1.441       .  S
C1181      N1183   1.157       .  T
C1182      N1184   1.157       .  T
C1185      C1186   1.403       .  A
C1185      C1190   1.412       .  A
C1186      C1187   1.401       .  A
C1186      H1191   1.084       .  S
C1187      C1188   1.411       .  A
C1187      C1194   1.443       .  S
C1188      C1189   1.397       .  A
C1189      C1190   1.393       .  A
C1189      H1192   1.078       .  S
C1190      C1193   1.444       .  S
C1193      N1195   1.157       .  T
C1194      N1196   1.157       .  T
C1197      C1198   1.404       .  A
C1197      C1202   1.412       .  A
C1198      C1199   1.401       .  A
C1198      H1203   1.085       .  S
C1199      C1200   1.412       .  A
C1199      C1206   1.441       .  S
C1200      C1201   1.408       .  A
C1201      C1202   1.404       .  A
C1201      H1204   1.084       .  S
C1202      C1205   1.444       .  S
C1205      N1207   1.157       .  T
C1206      N1208   1.157       .  T
C1209      C1210   1.398       .  A
C1209      C1214   1.410       .  A
C1210      C1211   1.396       .  A
C1210      H1215   1.086       .  S
C1211      C1212   1.413       .  A
C1211      C1218   1.437       .  S
C1212      C1213   1.408       .  A
C1213      C1214   1.402       .  A
C1213      H1216   1.084       .  S
C1214      C1217   1.444       .  S
C1217      N1219   1.157       .  T
C1218      N1220   1.156       .  T
C1221      C1222   1.405       .  A
C1221      C1226   1.406       .  A
C1222      C1223   1.402       .  A
C1222      H1227   1.081       .  S
C1223      C1224   1.413       .  A
C1223      C1230   1.444       .  S
C1224      C1225   1.408       .  A
C1225      C1226   1.398       .  A
C1225      H1228   1.085       .  S
C1226      C1229   1.442       .  S
C1229      N1231   1.157       .  T
C1230      N1232   1.157       .  T
C1233      C1234   1.404       .  A
C1233      C1238   1.416       .  A
C1234      C1235   1.396       .  A
C1234      H1239   1.085       .  S
C1235      C1236   1.411       .  A
C1235      C1242   1.442       .  S
C1236      C1237   1.404       .  A
C1237      C1238   1.406       .  A
C1237      H1240   1.083       .  S
C1238      C1241   1.443       .  S
C1241      N1243   1.157       .  T
C1242      N1244   1.157       .  T
C1245      C1246   1.402       .  A
C1245      C1250   1.414       .  A
C1246      C1247   1.398       .  A
C1246      H1251   1.085       .  S
C1247      C1248   1.411       .  A
C1247      C1254   1.442       .  S
C1248      C1249   1.400       .  A
C1249      C1250   1.399       .  A
C1249      H1252   1.083       .  S
C1250      C1253   1.443       .  S
C1253      N1255   1.157       .  T
C1254      N1256   1.157       .  T
C1257      C1258   1.407       .  A
C1257      C1262   1.412       .  A
C1258      C1259   1.401       .  A
C1258      H1263   1.084       .  S
C1259      C1260   1.410       .  A
C1259      C1266   1.444       .  S
C1260      C1261   1.402       .  A
C1261      C1262   1.399       .  A
C1261      H1264   1.085       .  S
C1262      C1265   1.440       .  S
C1265      N1267   1.157       .  T
C1266      N1268   1.157       .  T
C1269      C1270   1.399       .  A
C1269      C1274   1.409       .  A
C1270      C1271   1.392       .  A
C1270      H1275   1.082       .  S
C1271      C1272   1.413       .  A
C1271      C1278   1.445       .  S
C1272      C1273   1.405       .  A
C1273      C1274   1.404       .  A
C1273      H1276   1.084       .  S
C1274      C1277   1.441       .  S
C1277      N1279   1.157       .  T
C1278      N1280   1.157       .  T
C1281      C1282   1.400       .  A
C1281      C1286   1.411       .  A
C1282      C1283   1.396       .  A
C1282      H1287   1.081       .  S
C1283      C1284   1.411       .  A
C1283      C1290   1.441       .  S
C1284      C1285   1.403       .  A
C1285      C1286   1.402       .  A
C1285      H1288   1.084       .  S
C1286      C1289   1.441       .  S
C1289      N1291   1.157       .  T
C1290      N1292   1.156       .  T
C1293      C1294   1.406       .  A
C1293      C1298   1.410       .  A
C1294      C1295   1.403       .  A
C1294      H1299   1.084       .  S
C1295      C1296   1.413       .  A
C1295      C1302   1.443       .  S
C1296      C1297   1.405       .  A
C1297      C1298   1.400       .  A
C1297      H1300   1.085       .  S
C1298      C1301   1.442       .  S
C1301      N1303   1.157       .  T
C1302      N1304   1.157       .  T
C1305      C1306   1.398       .  A
C1305      C1310   1.412       .  A
C1306      C1307   1.395       .  A
C1306      H1311   1.084       .  S
C1307      C1308   1.420       .  A
C1307      C1314   1.446       .  S
C1308      C1309   1.406       .  A
C1309      C1310   1.406       .  A
C1309      H1312   1.084       .  S
C1310      C1313   1.442       .  S
C1313      N1315   1.157       .  T
C1314      N1316   1.157       .  T
C1317      C1318   1.403       .  A
C1317      C1322   1.410       .  A
C1318      C1319   1.397       .  A
C1318      H1323   1.083       .  S
C1319      C1320   1.412       .  A
C1319      C1326   1.444       .  S
C1320      C1321   1.406       .  A
C1321      C1322   1.402       .  A
C1321      H1324   1.085       .  S
C1322      C1325   1.443       .  S
C1325      N1327   1.157       .  T
C1326      N1328   1.157       .  T
C1329      C1330   1.394       .  A
C1329      C1334   1.411       .  A
C1330      C1331   1.392       .  A
C1330      H1335   1.084       .  S
C1331      C1332   1.424       .  A
C1331      C1338   1.445       .  S
C1332      C1333   1.407       .  A
C1333      C1334   1.407       .  A
C1333      H1336   1.084       .  S
C1334      C1337   1.442       .  S
C1337      N1339   1.157       .  T
C1338      N1340   1.157       .  T
C1341      C1342   1.406       .  A
C1341      C1346   1.418       .  A
C1342      C1343   1.403       .  A
C1342      H1347   1.084       .  S
C1343      C1344   1.410       .  A
C1343      C1350   1.442       .  S
C1344      C1345   1.399       .  A
C1345      C1346   1.395       .  A
C1345      H1348   1.084       .  S
C1346      C1349   1.446       .  S
C1349      N1351   1.157       .  T
C1350      N1352   1.157       .  T
C1353      C1354   1.403       .  A
C1353      C1358   1.415       .  A
C1354      C1355   1.392       .  A
C1354      H1359   1.085       .  S
C1355      C1356   1.411       .  A
C1355      C1362   1.441       .  S
C1356      C1357   1.404       .  A
C1357      C1358   1.404       .  A
C1357      H1360   1.083       .  S
C1358      C1361   1.443       .  S
C1361      N1363   1.157       .  T
C1362      N1364   1.157       .  T
C1365      C1366   1.398       .  A
C1365      C1370   1.416       .  A
C1366      C1367   1.402       .  A
C1366      H1371   1.085       .  S
C1367      C1368   1.420       .  A
C1367      C1374   1.440       .  S
C1368      C1369   1.400       .  A
C1369      C1370   1.401       .  A
C1369      H1372   1.084       .  S
C1370      C1373   1.442       .  S
C1373      N1375   1.156       .  T
C1374      N1376   1.157       .  T
C1377      C1378   1.401       .  A
C1377      C1382   1.414       .  A
C1378      C1379   1.401       .  A
C1378      H1383   1.084       .  S
C1379      C1380   1.413       .  A
C1379      C1386   1.440       .  S
C1380      C1381   1.403       .  A
C1381      C1382   1.402       .  A
C1381      H1384   1.085       .  S
C1382      C1385   1.441       .  S
C1385      N1387   1.157       .  T
C1386      N1388   1.156       .  T
C1389      C1390   1.394       .  A
C1389      C1394   1.413       .  A
C1390      C1391   1.394       .  A
C1390      H1395   1.082       .  S
C1391      C1392   1.420       .  A
C1391      C1398   1.442       .  S
C1392      C1393   1.404       .  A
C1393      C1394   1.403       .  A
C1393      H1396   1.084       .  S
C1394      C1397   1.441       .  S
C1397      N1399   1.157       .  T
C1398      N1400   1.157       .  T
C1401      C1402   1.405       .  A
C1401      C1406   1.423       .  A
C1402      C1403   1.404       .  A
C1402      H1407   1.084       .  S
C1403      C1404   1.413       .  A
C1403      C1410   1.442       .  S
C1404      C1405   1.397       .  A
C1405      C1406   1.396       .  A
C1405      H1408   1.086       .  S
C1406      C1409   1.446       .  S
C1409      N1411   1.158       .  T
C1410      N1412   1.157       .  T
C1413      C1414   1.406       .  A
C1413      C1418   1.413       .  A
C1414      C1415   1.405       .  A
C1414      H1419   1.083       .  S
C1415      C1416   1.413       .  A
C1415      C1422   1.443       .  S
C1416      C1417   1.403       .  A
C1417      C1418   1.393       .  A
C1417      H1420   1.086       .  S
C1418      C1421   1.442       .  S
C1421      N1423   1.158       .  T
C1422      N1424   1.157       .  T
C1425      C1426   1.401       .  A
C1425      C1430   1.411       .  A
C1426      C1427   1.396       .  A
C1426      H1431   1.085       .  S
C1427      C1428   1.410       .  A
C1427      C1434   1.442       .  S
C1428      C1429   1.401       .  A
C1429      C1430   1.400       .  A
C1429      H1432   1.083       .  S
C1430      C1433   1.441       .  S
C1433      N1435   1.156       .  T
C1434      N1436   1.157       .  T
C1437      C1438   1.406       .  A
C1437      C1442   1.416       .  A
C1438      C1439   1.395       .  A
C1438      H1443   1.085       .  S
C1439      C1440   1.410       .  A
C1439      C1446   1.443       .  S
C1440      C1441   1.405       .  A
C1441      C1442   1.408       .  A
C1441      H1444   1.083       .  S
C1442      C1445   1.442       .  S
C1445      N1447   1.157       .  T
C1446      N1448   1.157       .  T
C1449      C1450   1.410       .  A
C1449      C1454   1.416       .  A
C1450      C1451   1.403       .  A
C1450      H1455   1.082       .  S
C1451      C1452   1.409       .  A
C1451      C1458   1.445       .  S
C1452      C1453   1.397       .  A
C1453      C1454   1.399       .  A
C1453      H1456   1.085       .  S
C1454      C1457   1.435       .  S
C1457      N1459   1.156       .  T
C1458      N1460   1.157       .  T
C1461      C1462   1.405       .  A
C1461      C1466   1.414       .  A
C1462      C1463   1.398       .  A
C1462      H1467   1.085       .  S
C1463      C1464   1.411       .  A
C1463      C1470   1.443       .  S
C1464      C1465   1.401       .  A
C1465      C1466   1.400       .  A
C1465      H1468   1.081       .  S
C1466      C1469   1.443       .  S
C1469      N1471   1.157       .  T
C1470      N1472   1.157       .  T
C1473      C1474   1.406       .  A
C1473      C1478   1.412       .  A
C1474      C1475   1.405       .  A
C1474      H1479   1.084       .  S
C1475      C1476   1.413       .  A
C1475      C1482   1.443       .  S
C1476      C1477   1.402       .  A
C1477      C1478   1.391       .  A
C1477      H1480   1.086       .  S
C1478      C1481   1.443       .  S
C1481      N1483   1.158       .  T
C1482      N1484   1.157       .  T
C1485      C1486   1.401       .  A
C1485      C1490   1.410       .  A
C1486      C1487   1.402       .  A
C1486      H1491   1.081       .  S
C1487      C1488   1.416       .  A
C1487      C1494   1.443       .  S
C1488      C1489   1.407       .  A
C1489      C1490   1.400       .  A
C1489      H1492   1.085       .  S
C1490      C1493   1.444       .  S
C1493      N1495   1.157       .  T
C1494      N1496   1.157       .  T
C1497      C1498   1.401       .  A
C1497      C1502   1.410       .  A
C1498      C1499   1.399       .  A
C1498      H1503   1.085       .  S
C1499      C1500   1.411       .  A
C1499      C1506   1.438       .  S
C1500      C1501   1.409       .  A
C1501      C1502   1.404       .  A
C1501      H1504   1.084       .  S
C1502      C1505   1.444       .  S
C1505      N1507   1.157       .  T
C1506      N1508   1.156       .  T
C1509      C1510   1.401       .  A
C1509      C1514   1.409       .  A
C1510      C1511   1.397       .  A
C1510      H1515   1.083       .  S
C1511      C1512   1.414       .  A
C1511      C1518   1.445       .  S
C1512      C1513   1.403       .  A
C1513      C1514   1.400       .  A
C1513      H1516   1.085       .  S
C1514      C1517   1.442       .  S
C1517      N1519   1.157       .  T
C1518      N1520   1.157       .  T
C1521      C1522   1.402       .  A
C1521      C1526   1.415       .  A
C1522      C1523   1.402       .  A
C1522      H1527   1.085       .  S
C1523      C1524   1.414       .  A
C1523      C1530   1.440       .  S
C1524      C1525   1.400       .  A
C1525      C1526   1.399       .  A
C1525      H1528   1.085       .  S
C1526      C1529   1.441       .  S
C1529      N1531   1.157       .  T
C1530      N1532   1.156       .  T
C1533      C1534   1.400       .  A
C1533      C1538   1.407       .  A
C1534      C1535   1.393       .  A
C1534      H1539   1.084       .  S
C1535      C1536   1.417       .  A
C1535      C1542   1.446       .  S
C1536      C1537   1.408       .  A
C1537      C1538   1.405       .  A
C1537      H1540   1.084       .  S
C1538      C1541   1.441       .  S
C1541      N1543   1.157       .  T
C1542      N1544   1.157       .  T
C1545      C1546   1.405       .  A
C1545      C1550   1.411       .  A
C1546      C1547   1.400       .  A
C1546      H1551   1.085       .  S
C1547      C1548   1.410       .  A
C1547      C1554   1.440       .  S
C1548      C1549   1.407       .  A
C1549      C1550   1.404       .  A
C1549      H1552   1.083       .  S
C1550      C1553   1.444       .  S
C1553      N1555   1.157       .  T
C1554      N1556   1.156       .  T
C1557      C1558   1.398       .  A
C1557      C1562   1.410       .  A
C1558      C1559   1.394       .  A
C1558      H1563   1.084       .  S
C1559      C1560   1.419       .  A
C1559      C1566   1.446       .  S
C1560      C1561   1.405       .  A
C1561      C1562   1.403       .  A
C1561      H1564   1.084       .  S
C1562      C1565   1.442       .  S
C1565      N1567   1.157       .  T
C1566      N1568   1.157       .  T
C1569      C1570   1.407       .  A
C1569      C1574   1.410       .  A
C1570      C1571   1.400       .  A
C1570      H1575   1.084       .  S
C1571      C1572   1.409       .  A
C1571      C1578   1.444       .  S
C1572      C1573   1.403       .  A
C1573      C1574   1.401       .  A
C1573      H1576   1.085       .  S
C1574      C1577   1.441       .  S
C1577      N1579   1.157       .  T
C1578      N1580   1.157       .  T
C1581      C1582   1.403       .  A
C1581      C1586   1.412       .  A
C1582      C1583   1.401       .  A
C1582      H1587   1.085       .  S
C1583      C1584   1.412       .  A
C1583      C1590   1.440       .  S
C1584      C1585   1.400       .  A
C1585      C1586   1.398       .  A
C1585      H1588   1.085       .  S
C1586      C1589   1.441       .  S
C1589      N1591   1.157       .  T
C1590      N1592   1.156       .  T
C1593      C1594   1.405       .  A
C1593      C1598   1.414       .  A
C1594      C1595   1.406       .  A
C1594      H1599   1.084       .  S
C1595      C1596   1.413       .  A
C1595      C1602   1.442       .  S
C1596      C1597   1.396       .  A
C1597      C1598   1.392       .  A
C1597      H1600   1.082       .  S
C1598      C1601   1.441       .  S
C1601      N1603   1.156       .  T
C1602      N1604   1.157       .  T
C1605      C1606   1.397       .  A
C1605      C1610   1.412       .  A
C1606      C1607   1.396       .  A
C1606      H1611   1.083       .  S
C1607      C1608   1.420       .  A
C1607      C1614   1.444       .  S
C1608      C1609   1.406       .  A
C1609      C1610   1.406       .  A
C1609      H1612   1.084       .  S
C1610      C1613   1.441       .  S
C1613      N1615   1.157       .  T
C1614      N1616   1.157       .  T
C1617      C1618   1.405       .  A
C1617      C1622   1.411       .  A
C1618      C1619   1.401       .  A
C1618      H1623   1.085       .  S
C1619      C1620   1.410       .  A
C1619      C1626   1.443       .  S
C1620      C1621   1.405       .  A
C1621      C1622   1.401       .  A
C1621      H1624   1.083       .  S
C1622      C1625   1.444       .  S
C1625      N1627   1.157       .  T
C1626      N1628   1.157       .  T
C1629      C1630   1.404       .  A
C1629      C1634   1.409       .  A
C1630      C1631   1.400       .  A
C1630      H1635   1.083       .  S
C1631      C1632   1.411       .  A
C1631      C1638   1.444       .  S
C1632      C1633   1.404       .  A
C1633      C1634   1.399       .  A
C1633      H1636   1.085       .  S
C1634      C1637   1.442       .  S
C1637      N1639   1.157       .  T
C1638      N1640   1.157       .  T
C1641      C1642   1.399       .  A
C1641      C1646   1.411       .  A
C1642      C1643   1.395       .  A
C1642      H1647   1.082       .  S
C1643      C1644   1.417       .  A
C1643      C1650   1.446       .  S
C1644      C1645   1.406       .  A
C1645      C1646   1.406       .  A
C1645      H1648   1.084       .  S
C1646      C1649   1.442       .  S
C1649      N1651   1.157       .  T
C1650      N1652   1.157       .  T
C1653      C1654   1.406       .  A
C1653      C1658   1.417       .  A
C1654      C1655   1.406       .  A
C1654      H1659   1.084       .  S
C1655      C1656   1.411       .  A
C1655      C1662   1.442       .  S
C1656      C1657   1.399       .  A
C1657      C1658   1.395       .  A
C1657      H1660   1.082       .  S
C1658      C1661   1.446       .  S
C1661      N1663   1.157       .  T
C1662      N1664   1.157       .  T
C1665      C1666   1.409       .  A
C1665      C1670   1.420       .  A
C1666      C1667   1.409       .  A
C1666      H1671   1.084       .  S
C1667      C1668   1.410       .  A
C1667      C1674   1.441       .  S
C1668      C1669   1.400       .  A
C1669      C1670   1.395       .  A
C1669      H1672   1.083       .  S
C1670      C1673   1.446       .  S
C1673      N1675   1.158       .  T
C1674      N1676   1.157       .  T
C1677      C1678   1.404       .  A
C1677      C1682   1.413       .  A
C1678      C1679   1.393       .  A
C1678      H1683   1.086       .  S
C1679      C1680   1.410       .  A
C1679      C1686   1.442       .  S
C1680      C1681   1.406       .  A
C1681      C1682   1.404       .  A
C1681      H1684   1.084       .  S
C1682      C1685   1.442       .  S
C1685      N1687   1.157       .  T
C1686      N1688   1.157       .  T
C1689      C1690   1.403       .  A
C1689      C1694   1.410       .  A
C1690      C1691   1.399       .  A
C1690      H1695   1.083       .  S
C1691      C1692   1.412       .  A
C1691      C1698   1.444       .  S
C1692      C1693   1.404       .  A
C1693      C1694   1.399       .  A
C1693      H1696   1.085       .  S
C1694      C1697   1.443       .  S
C1697      N1699   1.157       .  T
C1698      N1700   1.157       .  T
C1701      C1702   1.408       .  A
C1701      C1706   1.411       .  A
C1702      C1703   1.405       .  A
C1702      H1707   1.083       .  S
C1703      C1704   1.411       .  A
C1703      C1710   1.444       .  S
C1704      C1705   1.403       .  A
C1705      C1706   1.399       .  A
C1705      H1708   1.085       .  S
C1706      C1709   1.440       .  S
C1709      N1711   1.156       .  T
C1710      N1712   1.157       .  T
C1713      C1714   1.406       .  A
C1713      C1718   1.421       .  A
C1714      C1715   1.403       .  A
C1714      H1719   1.084       .  S
C1715      C1716   1.409       .  A
C1715      C1722   1.440       .  S
C1716      C1717   1.399       .  A
C1717      C1718   1.394       .  A
C1717      H1720   1.085       .  S
C1718      C1721   1.446       .  S
C1721      N1723   1.158       .  T
C1722      N1724   1.157       .  T
C1725      C1726   1.400       .  A
C1725      C1730   1.412       .  A
C1726      C1727   1.398       .  A
C1726      H1731   1.085       .  S
C1727      C1728   1.413       .  A
C1727      C1734   1.441       .  S
C1728      C1729   1.405       .  A
C1729      C1730   1.403       .  A
C1729      H1732   1.085       .  S
C1730      C1733   1.443       .  S
C1733      N1735   1.157       .  T
C1734      N1736   1.157       .  T
C1737      C1738   1.398       .  A
C1737      C1742   1.411       .  A
C1738      C1739   1.394       .  A
C1738      H1743   1.082       .  S
C1739      C1740   1.416       .  A
C1739      C1746   1.445       .  S
C1740      C1741   1.405       .  A
C1741      C1742   1.405       .  A
C1741      H1744   1.084       .  S
C1742      C1745   1.442       .  S
C1745      N1747   1.157       .  T
C1746      N1748   1.157       .  T
C1749      C1750   1.404       .  A
C1749      C1754   1.410       .  A
C1750      C1751   1.401       .  A
C1750      H1755   1.082       .  S
C1751      C1752   1.413       .  A
C1751      C1758   1.443       .  S
C1752      C1753   1.406       .  A
C1753      C1754   1.400       .  A
C1753      H1756   1.085       .  S
C1754      C1757   1.441       .  S
C1757      N1759   1.157       .  T
C1758      N1760   1.157       .  T
C1761      C1762   1.401       .  A
C1761      C1766   1.412       .  A
C1762      C1763   1.401       .  A
C1762      H1767   1.084       .  S
C1763      C1764   1.415       .  A
C1763      C1770   1.440       .  S
C1764      C1765   1.403       .  A
C1765      C1766   1.404       .  A
C1765      H1768   1.084       .  S
C1766      C1769   1.441       .  S
C1769      N1771   1.157       .  T
C1770      N1772   1.156       .  T
C1773      C1774   1.402       .  A
C1773      C1778   1.410       .  A
C1774      C1775   1.398       .  A
C1774      H1779   1.085       .  S
C1775      C1776   1.408       .  A
C1775      C1782   1.440       .  S
C1776      C1777   1.406       .  A
C1777      C1778   1.398       .  A
C1777      H1780   1.085       .  S
C1778      C1781   1.444       .  S
C1781      N1783   1.157       .  T
C1782      N1784   1.157       .  T
C1785      C1786   1.399       .  A
C1785      C1790   1.411       .  A
C1786      C1787   1.399       .  A
C1786      H1791   1.083       .  S
C1787      C1788   1.414       .  A
C1787      C1794   1.442       .  S
C1788      C1789   1.402       .  A
C1789      C1790   1.399       .  A
C1789      H1792   1.084       .  S
C1790      C1793   1.443       .  S
C1793      N1795   1.157       .  T
C1794      N1796   1.156       .  T
C1797      C1798   1.406       .  A
C1797      C1802   1.416       .  A
C1798      C1799   1.393       .  A
C1798      H1803   1.085       .  S
C1799      C1800   1.411       .  A
C1799      C1806   1.444       .  S
C1800      C1801   1.406       .  A
C1801      C1802   1.409       .  A
C1801      H1804   1.083       .  S
C1802      C1805   1.443       .  S
C1805      N1807   1.157       .  T
C1806      N1808   1.157       .  T
C1809      C1810   1.404       .  A
C1809      C1814   1.406       .  A
C1810      C1811   1.402       .  A
C1810      H1815   1.083       .  S
C1811      C1812   1.415       .  A
C1811      C1818   1.443       .  S
C1812      C1813   1.406       .  A
C1813      C1814   1.395       .  A
C1813      H1816   1.085       .  S
C1814      C1817   1.443       .  S
C1817      N1819   1.157       .  T
C1818      N1820   1.157       .  T
C1821      C1822   1.408       .  A
C1821      C1826   1.411       .  A
C1822      C1823   1.402       .  A
C1822      H1827   1.084       .  S
C1823      C1824   1.411       .  A
C1823      C1830   1.444       .  S
C1824      C1825   1.402       .  A
C1825      C1826   1.401       .  A
C1825      H1828   1.085       .  S
C1826      C1829   1.439       .  S
C1829      N1831   1.156       .  T
C1830      N1832   1.157       .  T
C1833      C1834   1.400       .  A
C1833      C1838   1.407       .  A
C1834      C1835   1.403       .  A
C1834      H1839   1.082       .  S
C1835      C1836   1.416       .  A
C1835      C1842   1.438       .  S
C1836      C1837   1.409       .  A
C1837      C1838   1.397       .  A
C1837      H1840   1.085       .  S
C1838      C1841   1.444       .  S
C1841      N1843   1.157       .  T
C1842      N1844   1.156       .  T
C1845      C1846   1.403       .  A
C1845      C1850   1.415       .  A
C1846      C1847   1.402       .  A
C1846      H1851   1.084       .  S
C1847      C1848   1.413       .  A
C1847      C1854   1.444       .  S
C1848      C1849   1.399       .  A
C1849      C1850   1.396       .  A
C1849      H1852   1.085       .  S
C1850      C1853   1.443       .  S
C1853      N1855   1.157       .  T
C1854      N1856   1.157       .  T
C1857      C1858   1.404       .  A
C1857      C1862   1.407       .  A
C1858      C1859   1.405       .  A
C1858      H1863   1.082       .  S
C1859      C1860   1.415       .  A
C1859      C1866   1.443       .  S
C1860      C1861   1.407       .  A
C1861      C1862   1.396       .  A
C1861      H1864   1.084       .  S
C1862      C1865   1.444       .  S
C1865      N1867   1.157       .  T
C1866      N1868   1.157       .  T
C1869      C1870   1.403       .  A
C1869      C1874   1.413       .  A
C1870      C1871   1.393       .  A
C1870      H1875   1.085       .  S
C1871      C1872   1.413       .  A
C1871      C1878   1.443       .  S
C1872      C1873   1.408       .  A
C1873      C1874   1.409       .  A
C1873      H1876   1.083       .  S
C1874      C1877   1.443       .  S
C1877      N1879   1.157       .  T
C1878      N1880   1.158       .  T
C1881      C1882   1.409       .  A
C1881      C1886   1.414       .  A
C1882      C1883   1.397       .  A
C1882      H1887   1.085       .  S
C1883      C1884   1.406       .  A
C1883      C1890   1.443       .  S
C1884      C1885   1.406       .  A
C1885      C1886   1.406       .  A
C1885      H1888   1.083       .  S
C1886      C1889   1.443       .  S
C1889      N1891   1.157       .  T
C1890      N1892   1.157       .  T
C1893      C1894   1.408       .  A
C1893      C1898   1.414       .  A
C1894      C1895   1.402       .  A
C1894      H1899   1.084       .  S
C1895      C1896   1.411       .  A
C1895      C1902   1.444       .  S
C1896      C1897   1.399       .  A
C1897      C1898   1.399       .  A
C1897      H1900   1.085       .  S
C1898      C1901   1.437       .  S
C1901      N1903   1.156       .  T
C1902      N1904   1.157       .  T
