geometry optimzed in LAMMPS
_audit_creation_date              2020-11-30 
_audit_creation_method            'lammps2cif' 
_symmetry_space_group_name_H-M    'P1' 
_symmetry_Int_Tables_number       1 
_symmetry_cell_setting            triclinic 
loop_ 
_symmetry_equiv_pos_as_xyz 
  x,y,z 
_cell_length_a                    27.160398971805694 
_cell_length_b                    27.193327574287526 
_cell_length_c                    27.734536631884314 
_cell_angle_alpha                 90.00041281387773 
_cell_angle_beta                  89.99994061148456 
_cell_angle_gamma                 90.00207134922137 
loop_ 
_atom_site_label 
_atom_site_type_symbol 
_atom_site_fract_x 
_atom_site_fract_y 
_atom_site_fract_z 
_atom_site_charge 
N1          N  0.15679311  0.19201443  0.19620583    -0.00720
N2          N  0.12311913  0.18236511  0.16322009    -0.52840
N3          N  0.19100821  0.15772338  0.30671162    -0.00400
N4          N  0.18127050  0.12407794  0.33966209    -0.54960
N5          N  0.15679082  0.19194525  0.30673679     0.00010
N6          N  0.12311808  0.18226653  0.33971389    -0.52810
N7          N  0.19101631  0.15779913  0.19619059     0.00330
N8          N  0.18128554  0.12419191  0.16320141    -0.55320
C9          C  0.13940573  0.14052472  0.14209543     1.01460
C10         C  0.13939389  0.14039616  0.36078694     1.01240
N11         N  0.34150277  0.19196264  0.30673966    -0.00900
N12         N  0.37517746  0.18228885  0.33971602    -0.53410
N13         N  0.30728503  0.15780950  0.19619244     0.00980
N14         N  0.31702215  0.12420223  0.16320591    -0.54670
N15         N  0.34150384  0.19203151  0.19620787    -0.00930
N16         N  0.37518151  0.18238673  0.16322453    -0.53680
N17         N  0.30729011  0.15773376  0.30671298     0.01340
N18         N  0.31703287  0.12408825  0.33966120    -0.54750
Mn19       Mn  0.24914978  0.15642607  0.25145200     1.18440
C20         C  0.35890756  0.14041352  0.36078666     1.03540
C21         C  0.35890140  0.14054155  0.14210150     1.04210
N22         N  0.15687645  0.30799844  0.30685017    -0.00950
N23         N  0.12329621  0.31760813  0.33993328    -0.57260
N24         N  0.19106366  0.34231790  0.19633085     0.00250
N25         N  0.18138455  0.37596506  0.16337295    -0.57930
N26         N  0.15687830  0.30806752  0.19624068    -0.00460
N27         N  0.12330162  0.31770677  0.16316402    -0.57520
N28         N  0.19106829  0.34224175  0.30680353     0.00650
N29         N  0.18139438  0.37585001  0.33980031    -0.58210
Mn30       Mn  0.15549049  0.25001356  0.25150832     1.10660
C31         C  0.13959999  0.35947427  0.36101721     1.04770
C32         C  0.13959517  0.35960382  0.14213404     1.04840
N33         N  0.34139523  0.30808496  0.19624350    -0.00460
N34         N  0.37496971  0.31772901  0.16316582    -0.55840
N35         N  0.30719738  0.34225214  0.30680541     0.00220
N36         N  0.31686463  0.37586017  0.33980507    -0.52570
N37         N  0.34139371  0.30801560  0.30685223    -0.01090
N38         N  0.37497002  0.31762976  0.33993798    -0.55400
N39         N  0.30720507  0.34232831  0.19633217    -0.00080
N40         N  0.31687885  0.37597520  0.16337178    -0.52590
Mn41       Mn  0.34279310  0.25003182  0.25151076     1.20190
Mn42       Mn  0.24913375  0.34361513  0.25156804     1.10090
Cl43       Cl  0.24914179  0.25000764  0.25150982    -0.80560
C44         C  0.35867003  0.35962095  0.14213324     1.01770
C45         C  0.35865949  0.35949093  0.36102371     1.01570
C46         C  0.38948754  0.39032279  0.39423093     0.02920
C47         C  0.38971888  0.10966099  0.39409490     0.02920
C48         C  0.10876950  0.39030238  0.39422457     0.02920
C49         C  0.10858451  0.10964005  0.39409473     0.02920
C50         C  0.02406313  0.99998822  0.34140994     0.05970
C51         C  0.47421600  0.99999483  0.34141129     0.05970
C52         C  0.38948507  0.39045505  0.10891598     0.02920
C53         C  0.10877783  0.39043455  0.10891692     0.02920
C54         C  0.49912591  0.33622268  0.47712784     0.05970
C55         C  0.49912672  0.33627281  0.02605754     0.05970
C56         C  0.10858421  0.10976991  0.10879777     0.02920
C57         C  0.47421989  0.00017796  0.16160949     0.05970
C58         C  0.02406710  0.00017135  0.16160911     0.05970
C59         C  0.16290447  0.47496569  0.00152463     0.05970
C60         C  0.16273751  0.02491807  0.00149056     0.05970
C61         C  0.47419419  0.16402569  0.00142469     0.05970
C62         C  0.02411771  0.16401674  0.00142395     0.05970
C63         C  0.38972496  0.10979070  0.10880307     0.02920
C64         C  0.33536915  0.47499219  0.00152838     0.05970
C65         C  0.33555403  0.02494451  0.00149432     0.05970
C66         C  0.34333760  0.05280958  0.04533973    -0.07870
C67         C  0.35934209  0.07878572  0.07701677    -0.09430
C68         C  0.44652971  0.15614709  0.04535088    -0.07870
C69         C  0.42109681  0.13998707  0.07733467    -0.09430
C70         C  0.44675706  0.04476870  0.15328289    -0.07870
C71         C  0.42141119  0.07706757  0.13698253    -0.09430
C72         C  0.05178128  0.15612923  0.04534834    -0.07870
C73         C  0.07721398  0.13996462  0.07732883    -0.09430
C74         C  0.13896557  0.07876355  0.07701342    -0.07870
C75         C  0.15496426  0.05278505  0.04533627    -0.09430
C76         C  0.05154330  0.04475492  0.15328129    -0.07920
C77         C  0.07689556  0.07704907  0.13697879    -0.09430
C78         C  0.07610077  0.36037396  0.07864546    -0.07870
C79         C  0.04381685  0.34419485  0.05330832    -0.09430
C80         C  0.13901739  0.42087086  0.07663903    -0.07870
C81         C  0.15514404  0.44703486  0.04523485    -0.09430
C82         C  0.05186305  0.45572632  0.15343661    -0.07870
C83         C  0.07768478  0.42367439  0.13729350    -0.09430
C84         C  0.45443954  0.34420905  0.05330797    -0.07870
C85         C  0.42215839  0.36039521  0.07864251    -0.09430
C86         C  0.35924616  0.42089331  0.07664138    -0.07870
C87         C  0.34312308  0.44705960  0.04523825    -0.09430
C88         C  0.42058213  0.42369230  0.13729290    -0.07870
C89         C  0.44641047  0.45573992  0.15343688    -0.09430
C90         C  0.05154416  0.04458219  0.34967110    -0.07870
C91         C  0.07690394  0.07689235  0.36593339    -0.09430
C92         C  0.15497124  0.05272429  0.45760674    -0.07870
C93         C  0.13897533  0.07866605  0.42589960    -0.09430
C94         C  0.07720444  0.13984410  0.42554653    -0.07870
C95         C  0.05177715  0.15605073  0.45751065    -0.09430
C96         C  0.07610325  0.36024733  0.42451199    -0.07870
C97         C  0.04381673  0.34409620  0.44986353    -0.09430
C98         C  0.05185425  0.45555308  0.34964726    -0.07870
C99         C  0.07766778  0.42351567  0.36582891    -0.09430
C100        C  0.15513105  0.44697346  0.45785419    -0.07870
C101        C  0.13899928  0.42077175  0.42648243    -0.09430
C102        C  0.34332705  0.05274904  0.45761028    -0.07870
C103        C  0.35932690  0.07868879  0.42590253    -0.09430
C104        C  0.44674880  0.04459588  0.34967302    -0.07870
C105        C  0.42139599  0.07691061  0.36593438    -0.09430
C106        C  0.42110193  0.13986631  0.42554522    -0.07870
C107        C  0.44653116  0.15606831  0.45751129    -0.09430
C108        C  0.34313242  0.44699807  0.45785770    -0.07870
C109        C  0.35925874  0.42079374  0.42648624    -0.09430
C110        C  0.45443629  0.34411069  0.44986675    -0.07870
C111        C  0.42215126  0.36026888  0.42451946    -0.09430
C112        C  0.42059230  0.42353385  0.36583423    -0.07870
C113        C  0.44641186  0.45556677  0.34965047    -0.09430
N114        N  0.15679311  0.19201443  0.69620584    -0.00720
N115        N  0.12311913  0.18236511  0.66322009    -0.52840
N116        N  0.19100821  0.15772338  0.80671162    -0.00400
N117        N  0.18127050  0.12407794  0.83966209    -0.54960
N118        N  0.15679082  0.19194525  0.80673679     0.00010
N119        N  0.12311808  0.18226653  0.83971389    -0.52810
N120        N  0.19101631  0.15779913  0.69619059     0.00330
N121        N  0.18128554  0.12419191  0.66320141    -0.55320
C122        C  0.13940573  0.14052473  0.64209543     1.01460
C123        C  0.13939389  0.14039615  0.86078694     1.01240
N124        N  0.34150277  0.19196264  0.80673966    -0.00900
N125        N  0.37517746  0.18228885  0.83971602    -0.53410
N126        N  0.30728503  0.15780950  0.69619244     0.00980
N127        N  0.31702215  0.12420223  0.66320591    -0.54670
N128        N  0.34150384  0.19203151  0.69620787    -0.00930
N129        N  0.37518151  0.18238673  0.66322453    -0.53680
N130        N  0.30729010  0.15773376  0.80671298     0.01340
N131        N  0.31703287  0.12408825  0.83966120    -0.54750
Mn132      Mn  0.24914978  0.15642607  0.75145200     1.18440
C133        C  0.35890756  0.14041352  0.86078666     1.03540
C134        C  0.35890140  0.14054155  0.64210150     1.04210
N135        N  0.15687645  0.30799844  0.80685017    -0.00950
N136        N  0.12329621  0.31760814  0.83993328    -0.57260
N137        N  0.19106366  0.34231790  0.69633085     0.00250
N138        N  0.18138455  0.37596506  0.66337295    -0.57930
N139        N  0.15687830  0.30806752  0.69624068    -0.00460
N140        N  0.12330162  0.31770677  0.66316402    -0.57520
N141        N  0.19106829  0.34224175  0.80680353     0.00650
N142        N  0.18139438  0.37585002  0.83980030    -0.58210
Mn143      Mn  0.15549049  0.25001356  0.75150833     1.10660
C144        C  0.13959999  0.35947427  0.86101721     1.04770
C145        C  0.13959517  0.35960382  0.64213404     1.04840
N146        N  0.34139523  0.30808496  0.69624350    -0.00460
N147        N  0.37496971  0.31772901  0.66316583    -0.55840
N148        N  0.30719738  0.34225214  0.80680541     0.00220
N149        N  0.31686463  0.37586017  0.83980506    -0.52570
N150        N  0.34139371  0.30801560  0.80685224    -0.01090
N151        N  0.37497002  0.31762976  0.83993798    -0.55400
N152        N  0.30720507  0.34232831  0.69633217    -0.00080
N153        N  0.31687885  0.37597520  0.66337178    -0.52590
Mn154      Mn  0.34279310  0.25003182  0.75151076     1.20190
Mn155      Mn  0.24913375  0.34361512  0.75156804     1.10090
Cl156      Cl  0.24914180  0.25000764  0.75150983    -0.80560
C157        C  0.35867003  0.35962095  0.64213324     1.01770
C158        C  0.35865949  0.35949093  0.86102371     1.01570
C159        C  0.38948754  0.39032279  0.89423093     0.02920
C160        C  0.38971888  0.10966099  0.89409490     0.02920
C161        C  0.10876950  0.39030238  0.89422457     0.02920
C162        C  0.10858451  0.10964005  0.89409473     0.02920
C163        C  0.02406313  0.99998822  0.84140994     0.05970
C164        C  0.47421600  0.99999483  0.84141129     0.05970
C165        C  0.38948507  0.39045505  0.60891599     0.02920
C166        C  0.10877783  0.39043455  0.60891692     0.02920
C167        C  0.49912591  0.33622269  0.97712783     0.05970
C168        C  0.49912672  0.33627281  0.52605754     0.05970
C169        C  0.10858421  0.10976992  0.60879776     0.02920
C170        C  0.47421989  0.00017797  0.66160948     0.05970
C171        C  0.02406710  0.00017136  0.66160911     0.05970
C172        C  0.16290447  0.47496569  0.50152464     0.05970
C173        C  0.16273751  0.02491807  0.50149056     0.05970
C174        C  0.47419419  0.16402569  0.50142469     0.05970
C175        C  0.02411771  0.16401674  0.50142395     0.05970
C176        C  0.38972496  0.10979070  0.60880307     0.02920
C177        C  0.33536915  0.47499218  0.50152838     0.05970
C178        C  0.33555403  0.02494451  0.50149431     0.05970
C179        C  0.34333760  0.05280958  0.54533973    -0.07870
C180        C  0.35934209  0.07878572  0.57701677    -0.09430
C181        C  0.44652971  0.15614709  0.54535088    -0.07870
C182        C  0.42109681  0.13998707  0.57733467    -0.09430
C183        C  0.44675706  0.04476870  0.65328289    -0.07870
C184        C  0.42141119  0.07706757  0.63698253    -0.09430
C185        C  0.05178128  0.15612923  0.54534833    -0.07870
C186        C  0.07721398  0.13996462  0.57732883    -0.09430
C187        C  0.13896557  0.07876355  0.57701342    -0.07870
C188        C  0.15496426  0.05278506  0.54533627    -0.09430
C189        C  0.05154330  0.04475492  0.65328129    -0.07920
C190        C  0.07689556  0.07704907  0.63697879    -0.09430
C191        C  0.07610077  0.36037396  0.57864546    -0.07870
C192        C  0.04381685  0.34419484  0.55330832    -0.09430
C193        C  0.13901739  0.42087086  0.57663903    -0.07870
C194        C  0.15514404  0.44703486  0.54523485    -0.09430
C195        C  0.05186305  0.45572632  0.65343661    -0.07870
C196        C  0.07768478  0.42367439  0.63729350    -0.09430
C197        C  0.45443954  0.34420905  0.55330797    -0.07870
C198        C  0.42215839  0.36039521  0.57864251    -0.09430
C199        C  0.35924616  0.42089331  0.57664138    -0.07870
C200        C  0.34312308  0.44705960  0.54523825    -0.09430
C201        C  0.42058213  0.42369230  0.63729290    -0.07870
C202        C  0.44641047  0.45573992  0.65343688    -0.09430
C203        C  0.05154416  0.04458219  0.84967110    -0.07870
C204        C  0.07690394  0.07689235  0.86593339    -0.09430
C205        C  0.15497124  0.05272429  0.95760674    -0.07870
C206        C  0.13897533  0.07866605  0.92589960    -0.09430
C207        C  0.07720444  0.13984410  0.92554653    -0.07870
C208        C  0.05177715  0.15605073  0.95751065    -0.09430
C209        C  0.07610325  0.36024733  0.92451199    -0.07870
C210        C  0.04381673  0.34409621  0.94986353    -0.09430
C211        C  0.05185425  0.45555308  0.84964726    -0.07870
C212        C  0.07766778  0.42351568  0.86582891    -0.09430
C213        C  0.15513105  0.44697347  0.95785419    -0.07870
C214        C  0.13899928  0.42077175  0.92648243    -0.09430
C215        C  0.34332704  0.05274904  0.95761028    -0.07870
C216        C  0.35932690  0.07868879  0.92590253    -0.09430
C217        C  0.44674880  0.04459588  0.84967302    -0.07870
C218        C  0.42139599  0.07691060  0.86593438    -0.09430
C219        C  0.42110193  0.13986631  0.92554522    -0.07870
C220        C  0.44653116  0.15606831  0.95751129    -0.09430
C221        C  0.34313242  0.44699807  0.95785770    -0.07870
C222        C  0.35925874  0.42079375  0.92648624    -0.09430
C223        C  0.45443629  0.34411069  0.94986675    -0.07870
C224        C  0.42215126  0.36026889  0.92451946    -0.09430
C225        C  0.42059230  0.42353385  0.86583423    -0.07870
C226        C  0.44641186  0.45556678  0.84965047    -0.09430
N227        N  0.15679311  0.69201443  0.19620584    -0.00720
N228        N  0.12311913  0.68236511  0.16322009    -0.52840
N229        N  0.19100821  0.65772338  0.30671162    -0.00400
N230        N  0.18127050  0.62407793  0.33966209    -0.54960
N231        N  0.15679082  0.69194525  0.30673679     0.00010
N232        N  0.12311808  0.68226653  0.33971389    -0.52810
N233        N  0.19101631  0.65779913  0.19619059     0.00330
N234        N  0.18128554  0.62419191  0.16320141    -0.55320
C235        C  0.13940573  0.64052473  0.14209543     1.01460
C236        C  0.13939389  0.64039615  0.36078694     1.01240
N237        N  0.34150277  0.69196264  0.30673966    -0.00900
N238        N  0.37517746  0.68228885  0.33971602    -0.53410
N239        N  0.30728503  0.65780950  0.19619244     0.00980
N240        N  0.31702215  0.62420223  0.16320591    -0.54670
N241        N  0.34150384  0.69203151  0.19620787    -0.00930
N242        N  0.37518151  0.68238673  0.16322453    -0.53680
N243        N  0.30729010  0.65773376  0.30671298     0.01340
N244        N  0.31703287  0.62408825  0.33966120    -0.54750
Mn245      Mn  0.24914978  0.65642607  0.25145200     1.18440
C246        C  0.35890756  0.64041352  0.36078666     1.03540
C247        C  0.35890140  0.64054155  0.14210150     1.04210
N248        N  0.15687645  0.80799844  0.30685017    -0.00950
N249        N  0.12329621  0.81760813  0.33993328    -0.57260
N250        N  0.19106366  0.84231790  0.19633085     0.00250
N251        N  0.18138455  0.87596505  0.16337295    -0.57930
N252        N  0.15687830  0.80806752  0.19624068    -0.00460
N253        N  0.12330162  0.81770677  0.16316402    -0.57520
N254        N  0.19106829  0.84224175  0.30680353     0.00650
N255        N  0.18139439  0.87585001  0.33980031    -0.58210
Mn256      Mn  0.15549049  0.75001356  0.25150833     1.10660
C257        C  0.13959999  0.85947427  0.36101721     1.04770
C258        C  0.13959517  0.85960382  0.14213404     1.04840
N259        N  0.34139523  0.80808496  0.19624350    -0.00460
N260        N  0.37496971  0.81772901  0.16316582    -0.55840
N261        N  0.30719739  0.84225214  0.30680541     0.00220
N262        N  0.31686463  0.87586017  0.33980506    -0.52570
N263        N  0.34139371  0.80801560  0.30685224    -0.01090
N264        N  0.37497002  0.81762976  0.33993798    -0.55400
N265        N  0.30720507  0.84232830  0.19633217    -0.00080
N266        N  0.31687886  0.87597520  0.16337178    -0.52590
Mn267      Mn  0.34279310  0.75003182  0.25151076     1.20190
Mn268      Mn  0.24913375  0.84361512  0.25156804     1.10090
Cl269      Cl  0.24914180  0.75000764  0.25150983    -0.80560
C270        C  0.35867003  0.85962094  0.14213324     1.01770
C271        C  0.35865949  0.85949093  0.36102371     1.01570
C272        C  0.38948754  0.89032279  0.39423093     0.02920
C273        C  0.38971888  0.60966098  0.39409490     0.02920
C274        C  0.10876950  0.89030238  0.39422457     0.02920
C275        C  0.10858451  0.60964005  0.39409473     0.02920
C276        C  0.02406313  0.49998822  0.34140994     0.05970
C277        C  0.47421600  0.49999483  0.34141129     0.05970
C278        C  0.38948508  0.89045505  0.10891599     0.02920
C279        C  0.10877783  0.89043455  0.10891692     0.02920
C280        C  0.49912591  0.83622268  0.47712784     0.05970
C281        C  0.49912672  0.83627281  0.02605754     0.05970
C282        C  0.10858421  0.60976992  0.10879776     0.02920
C283        C  0.47421989  0.50017796  0.16160948     0.05970
C284        C  0.02406710  0.50017136  0.16160911     0.05970
C285        C  0.16290447  0.97496569  0.00152464     0.05970
C286        C  0.16273751  0.52491807  0.00149056     0.05970
C287        C  0.47419419  0.66402569  0.00142469     0.05970
C288        C  0.02411771  0.66401674  0.00142395     0.05970
C289        C  0.38972496  0.60979070  0.10880307     0.02920
C290        C  0.33536915  0.97499218  0.00152838     0.05970
C291        C  0.33555402  0.52494451  0.00149431     0.05970
C292        C  0.34333760  0.55280958  0.04533973    -0.07870
C293        C  0.35934209  0.57878572  0.07701677    -0.09430
C294        C  0.44652971  0.65614709  0.04535088    -0.07870
C295        C  0.42109681  0.63998707  0.07733467    -0.09430
C296        C  0.44675706  0.54476870  0.15328289    -0.07870
C297        C  0.42141119  0.57706757  0.13698253    -0.09430
C298        C  0.05178128  0.65612923  0.04534833    -0.07870
C299        C  0.07721398  0.63996462  0.07732883    -0.09430
C300        C  0.13896557  0.57876355  0.07701342    -0.07870
C301        C  0.15496426  0.55278506  0.04533627    -0.09430
C302        C  0.05154330  0.54475492  0.15328129    -0.07920
C303        C  0.07689556  0.57704907  0.13697879    -0.09430
C304        C  0.07610077  0.86037396  0.07864546    -0.07870
C305        C  0.04381685  0.84419484  0.05330832    -0.09430
C306        C  0.13901739  0.92087086  0.07663903    -0.07870
C307        C  0.15514404  0.94703486  0.04523485    -0.09430
C308        C  0.05186305  0.95572631  0.15343661    -0.07870
C309        C  0.07768478  0.92367438  0.13729350    -0.09430
C310        C  0.45443954  0.84420904  0.05330797    -0.07870
C311        C  0.42215839  0.86039521  0.07864251    -0.09430
C312        C  0.35924616  0.92089330  0.07664138    -0.07870
C313        C  0.34312308  0.94705960  0.04523825    -0.09430
C314        C  0.42058213  0.92369230  0.13729290    -0.07870
C315        C  0.44641047  0.95573992  0.15343688    -0.09430
C316        C  0.05154415  0.54458219  0.34967110    -0.07870
C317        C  0.07690394  0.57689235  0.36593339    -0.09430
C318        C  0.15497124  0.55272429  0.45760674    -0.07870
C319        C  0.13897532  0.57866605  0.42589960    -0.09430
C320        C  0.07720444  0.63984410  0.42554653    -0.07870
C321        C  0.05177715  0.65605073  0.45751065    -0.09430
C322        C  0.07610325  0.86024733  0.42451199    -0.07870
C323        C  0.04381674  0.84409621  0.44986353    -0.09430
C324        C  0.05185425  0.95555308  0.34964726    -0.07870
C325        C  0.07766778  0.92351568  0.36582891    -0.09430
C326        C  0.15513105  0.94697347  0.45785419    -0.07870
C327        C  0.13899928  0.92077175  0.42648243    -0.09430
C328        C  0.34332704  0.55274904  0.45761028    -0.07870
C329        C  0.35932690  0.57868879  0.42590253    -0.09430
C330        C  0.44674880  0.54459588  0.34967302    -0.07870
C331        C  0.42139599  0.57691060  0.36593438    -0.09430
C332        C  0.42110193  0.63986631  0.42554522    -0.07870
C333        C  0.44653116  0.65606831  0.45751129    -0.09430
C334        C  0.34313242  0.94699807  0.45785770    -0.07870
C335        C  0.35925874  0.92079375  0.42648624    -0.09430
C336        C  0.45443630  0.84411069  0.44986675    -0.07870
C337        C  0.42215126  0.86026889  0.42451946    -0.09430
C338        C  0.42059230  0.92353385  0.36583423    -0.07870
C339        C  0.44641186  0.95556677  0.34965047    -0.09430
N340        N  0.15679311  0.69201443  0.69620583    -0.00720
N341        N  0.12311913  0.68236511  0.66322009    -0.52840
N342        N  0.19100821  0.65772338  0.80671162    -0.00400
N343        N  0.18127050  0.62407794  0.83966209    -0.54960
N344        N  0.15679082  0.69194525  0.80673679     0.00010
N345        N  0.12311808  0.68226653  0.83971389    -0.52810
N346        N  0.19101631  0.65779913  0.69619059     0.00330
N347        N  0.18128554  0.62419191  0.66320141    -0.55320
C348        C  0.13940573  0.64052473  0.64209543     1.01460
C349        C  0.13939389  0.64039616  0.86078694     1.01240
N350        N  0.34150277  0.69196264  0.80673966    -0.00900
N351        N  0.37517746  0.68228885  0.83971602    -0.53410
N352        N  0.30728503  0.65780950  0.69619244     0.00980
N353        N  0.31702215  0.62420223  0.66320591    -0.54670
N354        N  0.34150384  0.69203151  0.69620787    -0.00930
N355        N  0.37518151  0.68238673  0.66322453    -0.53680
N356        N  0.30729010  0.65773376  0.80671298     0.01340
N357        N  0.31703287  0.62408825  0.83966120    -0.54750
Mn358      Mn  0.24914978  0.65642607  0.75145200     1.18440
C359        C  0.35890756  0.64041352  0.86078666     1.03540
C360        C  0.35890140  0.64054155  0.64210149     1.04210
N361        N  0.15687645  0.80799844  0.80685017    -0.00950
N362        N  0.12329621  0.81760814  0.83993328    -0.57260
N363        N  0.19106366  0.84231790  0.69633085     0.00250
N364        N  0.18138455  0.87596506  0.66337295    -0.57930
N365        N  0.15687830  0.80806752  0.69624068    -0.00460
N366        N  0.12330162  0.81770677  0.66316402    -0.57520
N367        N  0.19106829  0.84224175  0.80680353     0.00650
N368        N  0.18139439  0.87585001  0.83980031    -0.58210
Mn369      Mn  0.15549050  0.75001356  0.75150832     1.10660
C370        C  0.13959999  0.85947427  0.86101721     1.04770
C371        C  0.13959517  0.85960382  0.64213404     1.04840
N372        N  0.34139523  0.80808496  0.69624350    -0.00460
N373        N  0.37496971  0.81772901  0.66316582    -0.55840
N374        N  0.30719739  0.84225214  0.80680541     0.00220
N375        N  0.31686463  0.87586017  0.83980506    -0.52570
N376        N  0.34139371  0.80801560  0.80685223    -0.01090
N377        N  0.37497002  0.81762976  0.83993797    -0.55400
N378        N  0.30720507  0.84232831  0.69633217    -0.00080
N379        N  0.31687886  0.87597520  0.66337178    -0.52590
Mn380      Mn  0.34279310  0.75003182  0.75151076     1.20190
Mn381      Mn  0.24913375  0.84361513  0.75156804     1.10090
Cl382      Cl  0.24914180  0.75000764  0.75150982    -0.80560
C383        C  0.35867003  0.85962095  0.64213324     1.01770
C384        C  0.35865949  0.85949093  0.86102371     1.01570
C385        C  0.38948754  0.89032279  0.89423093     0.02920
C386        C  0.38971888  0.60966099  0.89409490     0.02920
C387        C  0.10876950  0.89030238  0.89422457     0.02920
C388        C  0.10858451  0.60964005  0.89409473     0.02920
C389        C  0.02406313  0.49998822  0.84140994     0.05970
C390        C  0.47421600  0.49999484  0.84141129     0.05970
C391        C  0.38948508  0.89045505  0.60891599     0.02920
C392        C  0.10877783  0.89043455  0.60891692     0.02920
C393        C  0.49912591  0.83622268  0.97712783     0.05970
C394        C  0.49912672  0.83627281  0.52605754     0.05970
C395        C  0.10858421  0.60976992  0.60879776     0.02920
C396        C  0.47421989  0.50017796  0.66160949     0.05970
C397        C  0.02406710  0.50017136  0.66160911     0.05970
C398        C  0.16290447  0.97496569  0.50152463     0.05970
C399        C  0.16273751  0.52491807  0.50149056     0.05970
C400        C  0.47419419  0.66402569  0.50142469     0.05970
C401        C  0.02411771  0.66401674  0.50142395     0.05970
C402        C  0.38972496  0.60979070  0.60880307     0.02920
C403        C  0.33536915  0.97499219  0.50152838     0.05970
C404        C  0.33555402  0.52494451  0.50149432     0.05970
C405        C  0.34333760  0.55280958  0.54533973    -0.07870
C406        C  0.35934209  0.57878572  0.57701677    -0.09430
C407        C  0.44652971  0.65614709  0.54535088    -0.07870
C408        C  0.42109681  0.63998707  0.57733467    -0.09430
C409        C  0.44675706  0.54476870  0.65328289    -0.07870
C410        C  0.42141119  0.57706757  0.63698253    -0.09430
C411        C  0.05178128  0.65612923  0.54534833    -0.07870
C412        C  0.07721398  0.63996462  0.57732883    -0.09430
C413        C  0.13896557  0.57876355  0.57701342    -0.07870
C414        C  0.15496426  0.55278505  0.54533627    -0.09430
C415        C  0.05154330  0.54475492  0.65328129    -0.07920
C416        C  0.07689556  0.57704907  0.63697879    -0.09430
C417        C  0.07610077  0.86037397  0.57864546    -0.07870
C418        C  0.04381685  0.84419485  0.55330832    -0.09430
C419        C  0.13901739  0.92087086  0.57663903    -0.07870
C420        C  0.15514404  0.94703486  0.54523485    -0.09430
C421        C  0.05186305  0.95572632  0.65343661    -0.07870
C422        C  0.07768478  0.92367439  0.63729350    -0.09430
C423        C  0.45443954  0.84420905  0.55330797    -0.07870
C424        C  0.42215839  0.86039521  0.57864251    -0.09430
C425        C  0.35924616  0.92089331  0.57664138    -0.07870
C426        C  0.34312308  0.94705960  0.54523825    -0.09430
C427        C  0.42058213  0.92369230  0.63729290    -0.07870
C428        C  0.44641047  0.95573992  0.65343688    -0.09430
C429        C  0.05154415  0.54458219  0.84967110    -0.07870
C430        C  0.07690394  0.57689235  0.86593339    -0.09430
C431        C  0.15497124  0.55272429  0.95760674    -0.07870
C432        C  0.13897532  0.57866605  0.92589960    -0.09430
C433        C  0.07720444  0.63984410  0.92554653    -0.07870
C434        C  0.05177715  0.65605073  0.95751065    -0.09430
C435        C  0.07610325  0.86024733  0.92451199    -0.07870
C436        C  0.04381674  0.84409620  0.94986353    -0.09430
C437        C  0.05185425  0.95555308  0.84964726    -0.07870
C438        C  0.07766778  0.92351568  0.86582891    -0.09430
C439        C  0.15513105  0.94697347  0.95785419    -0.07870
C440        C  0.13899928  0.92077175  0.92648243    -0.09430
C441        C  0.34332704  0.55274904  0.95761028    -0.07870
C442        C  0.35932690  0.57868879  0.92590253    -0.09430
C443        C  0.44674880  0.54459588  0.84967302    -0.07870
C444        C  0.42139599  0.57691061  0.86593438    -0.09430
C445        C  0.42110193  0.63986631  0.92554522    -0.07870
C446        C  0.44653116  0.65606831  0.95751129    -0.09430
C447        C  0.34313242  0.94699807  0.95785770    -0.07870
C448        C  0.35925874  0.92079374  0.92648624    -0.09430
C449        C  0.45443630  0.84411069  0.94986675    -0.07870
C450        C  0.42215126  0.86026888  0.92451946    -0.09430
C451        C  0.42059230  0.92353385  0.86583423    -0.07870
C452        C  0.44641186  0.95556677  0.84965047    -0.09430
N453        N  0.65679311  0.19201443  0.19620583    -0.00720
N454        N  0.62311913  0.18236511  0.16322009    -0.52840
N455        N  0.69100821  0.15772338  0.30671162    -0.00400
N456        N  0.68127050  0.12407794  0.33966209    -0.54960
N457        N  0.65679082  0.19194525  0.30673679     0.00010
N458        N  0.62311808  0.18226653  0.33971389    -0.52810
N459        N  0.69101631  0.15779913  0.19619059     0.00330
N460        N  0.68128554  0.12419191  0.16320141    -0.55320
C461        C  0.63940573  0.14052472  0.14209543     1.01460
C462        C  0.63939389  0.14039616  0.36078694     1.01240
N463        N  0.84150277  0.19196264  0.30673966    -0.00900
N464        N  0.87517746  0.18228885  0.33971602    -0.53410
N465        N  0.80728503  0.15780950  0.19619244     0.00980
N466        N  0.81702215  0.12420223  0.16320591    -0.54670
N467        N  0.84150384  0.19203151  0.19620787    -0.00930
N468        N  0.87518151  0.18238673  0.16322453    -0.53680
N469        N  0.80729011  0.15773376  0.30671298     0.01340
N470        N  0.81703287  0.12408825  0.33966120    -0.54750
Mn471      Mn  0.74914978  0.15642607  0.25145200     1.18440
C472        C  0.85890756  0.14041352  0.36078666     1.03540
C473        C  0.85890140  0.14054155  0.14210150     1.04210
N474        N  0.65687645  0.30799844  0.30685017    -0.00950
N475        N  0.62329621  0.31760813  0.33993328    -0.57260
N476        N  0.69106366  0.34231790  0.19633085     0.00250
N477        N  0.68138455  0.37596506  0.16337295    -0.57930
N478        N  0.65687830  0.30806752  0.19624068    -0.00460
N479        N  0.62330162  0.31770677  0.16316402    -0.57520
N480        N  0.69106829  0.34224175  0.30680353     0.00650
N481        N  0.68139438  0.37585001  0.33980031    -0.58210
Mn482      Mn  0.65549049  0.25001356  0.25150832     1.10660
C483        C  0.63959999  0.35947427  0.36101721     1.04770
C484        C  0.63959517  0.35960382  0.14213404     1.04840
N485        N  0.84139523  0.30808496  0.19624350    -0.00460
N486        N  0.87496971  0.31772901  0.16316582    -0.55840
N487        N  0.80719738  0.34225214  0.30680541     0.00220
N488        N  0.81686463  0.37586017  0.33980507    -0.52570
N489        N  0.84139371  0.30801560  0.30685223    -0.01090
N490        N  0.87497002  0.31762976  0.33993798    -0.55400
N491        N  0.80720507  0.34232831  0.19633217    -0.00080
N492        N  0.81687885  0.37597520  0.16337178    -0.52590
Mn493      Mn  0.84279310  0.25003182  0.25151076     1.20190
Mn494      Mn  0.74913375  0.34361513  0.25156804     1.10090
Cl495      Cl  0.74914180  0.25000764  0.25150982    -0.80560
C496        C  0.85867003  0.35962095  0.14213324     1.01770
C497        C  0.85865949  0.35949093  0.36102371     1.01570
C498        C  0.88948754  0.39032279  0.39423093     0.02920
C499        C  0.88971888  0.10966099  0.39409490     0.02920
C500        C  0.60876950  0.39030238  0.39422457     0.02920
C501        C  0.60858451  0.10964005  0.39409473     0.02920
C502        C  0.52406313  0.99998822  0.34140994     0.05970
C503        C  0.97421600  0.99999483  0.34141129     0.05970
C504        C  0.88948507  0.39045505  0.10891598     0.02920
C505        C  0.60877783  0.39043455  0.10891692     0.02920
C506        C  0.99912591  0.33622268  0.47712784     0.05970
C507        C  0.99912672  0.33627281  0.02605754     0.05970
C508        C  0.60858421  0.10976991  0.10879777     0.02920
C509        C  0.97421989  0.00017796  0.16160948     0.05970
C510        C  0.52406710  0.00017135  0.16160911     0.05970
C511        C  0.66290447  0.47496569  0.00152463     0.05970
C512        C  0.66273751  0.02491807  0.00149056     0.05970
C513        C  0.97419419  0.16402569  0.00142469     0.05970
C514        C  0.52411771  0.16401674  0.00142395     0.05970
C515        C  0.88972496  0.10979070  0.10880307     0.02920
C516        C  0.83536915  0.47499219  0.00152838     0.05970
C517        C  0.83555403  0.02494451  0.00149432     0.05970
C518        C  0.84333760  0.05280958  0.04533973    -0.07870
C519        C  0.85934209  0.07878572  0.07701677    -0.09430
C520        C  0.94652971  0.15614709  0.04535088    -0.07870
C521        C  0.92109681  0.13998707  0.07733467    -0.09430
C522        C  0.94675706  0.04476870  0.15328289    -0.07870
C523        C  0.92141119  0.07706757  0.13698253    -0.09430
C524        C  0.55178128  0.15612923  0.04534834    -0.07870
C525        C  0.57721398  0.13996462  0.07732883    -0.09430
C526        C  0.63896557  0.07876355  0.07701342    -0.07870
C527        C  0.65496426  0.05278505  0.04533627    -0.09430
C528        C  0.55154330  0.04475492  0.15328129    -0.07920
C529        C  0.57689556  0.07704907  0.13697879    -0.09430
C530        C  0.57610077  0.36037396  0.07864546    -0.07870
C531        C  0.54381685  0.34419485  0.05330832    -0.09430
C532        C  0.63901739  0.42087086  0.07663903    -0.07870
C533        C  0.65514404  0.44703486  0.04523485    -0.09430
C534        C  0.55186305  0.45572632  0.15343661    -0.07870
C535        C  0.57768478  0.42367439  0.13729350    -0.09430
C536        C  0.95443954  0.34420905  0.05330797    -0.07870
C537        C  0.92215839  0.36039521  0.07864251    -0.09430
C538        C  0.85924616  0.42089331  0.07664138    -0.07870
C539        C  0.84312308  0.44705960  0.04523825    -0.09430
C540        C  0.92058213  0.42369230  0.13729290    -0.07870
C541        C  0.94641047  0.45573992  0.15343688    -0.09430
C542        C  0.55154415  0.04458219  0.34967110    -0.07870
C543        C  0.57690394  0.07689235  0.36593339    -0.09430
C544        C  0.65497124  0.05272429  0.45760674    -0.07870
C545        C  0.63897533  0.07866605  0.42589960    -0.09430
C546        C  0.57720444  0.13984410  0.42554653    -0.07870
C547        C  0.55177715  0.15605073  0.45751065    -0.09430
C548        C  0.57610325  0.36024733  0.42451199    -0.07870
C549        C  0.54381673  0.34409620  0.44986353    -0.09430
C550        C  0.55185425  0.45555308  0.34964726    -0.07870
C551        C  0.57766778  0.42351567  0.36582892    -0.09430
C552        C  0.65513105  0.44697346  0.45785419    -0.07870
C553        C  0.63899928  0.42077175  0.42648243    -0.09430
C554        C  0.84332704  0.05274904  0.45761028    -0.07870
C555        C  0.85932690  0.07868879  0.42590253    -0.09430
C556        C  0.94674880  0.04459588  0.34967302    -0.07870
C557        C  0.92139599  0.07691061  0.36593438    -0.09430
C558        C  0.92110193  0.13986631  0.42554522    -0.07870
C559        C  0.94653116  0.15606831  0.45751129    -0.09430
C560        C  0.84313242  0.44699807  0.45785770    -0.07870
C561        C  0.85925874  0.42079374  0.42648624    -0.09430
C562        C  0.95443629  0.34411069  0.44986675    -0.07870
C563        C  0.92215126  0.36026888  0.42451946    -0.09430
C564        C  0.92059230  0.42353385  0.36583423    -0.07870
C565        C  0.94641186  0.45556677  0.34965047    -0.09430
N566        N  0.65679311  0.19201443  0.69620584    -0.00720
N567        N  0.62311913  0.18236511  0.66322009    -0.52840
N568        N  0.69100821  0.15772338  0.80671162    -0.00400
N569        N  0.68127050  0.12407794  0.83966209    -0.54960
N570        N  0.65679082  0.19194525  0.80673679     0.00010
N571        N  0.62311808  0.18226653  0.83971389    -0.52810
N572        N  0.69101631  0.15779913  0.69619059     0.00330
N573        N  0.68128554  0.12419191  0.66320141    -0.55320
C574        C  0.63940573  0.14052473  0.64209543     1.01460
C575        C  0.63939389  0.14039615  0.86078694     1.01240
N576        N  0.84150277  0.19196264  0.80673966    -0.00900
N577        N  0.87517746  0.18228885  0.83971602    -0.53410
N578        N  0.80728503  0.15780950  0.69619244     0.00980
N579        N  0.81702215  0.12420223  0.66320591    -0.54670
N580        N  0.84150384  0.19203151  0.69620787    -0.00930
N581        N  0.87518151  0.18238673  0.66322453    -0.53680
N582        N  0.80729011  0.15773376  0.80671298     0.01340
N583        N  0.81703287  0.12408825  0.83966120    -0.54750
Mn584      Mn  0.74914978  0.15642607  0.75145200     1.18440
C585        C  0.85890756  0.14041352  0.86078666     1.03540
C586        C  0.85890140  0.14054155  0.64210150     1.04210
N587        N  0.65687645  0.30799844  0.80685017    -0.00950
N588        N  0.62329621  0.31760814  0.83993328    -0.57260
N589        N  0.69106366  0.34231790  0.69633085     0.00250
N590        N  0.68138455  0.37596506  0.66337295    -0.57930
N591        N  0.65687830  0.30806752  0.69624068    -0.00460
N592        N  0.62330162  0.31770677  0.66316402    -0.57520
N593        N  0.69106829  0.34224175  0.80680353     0.00650
N594        N  0.68139438  0.37585002  0.83980031    -0.58210
Mn595      Mn  0.65549049  0.25001356  0.75150833     1.10660
C596        C  0.63959999  0.35947427  0.86101721     1.04770
C597        C  0.63959517  0.35960382  0.64213404     1.04840
N598        N  0.84139523  0.30808496  0.69624350    -0.00460
N599        N  0.87496971  0.31772901  0.66316583    -0.55840
N600        N  0.80719738  0.34225214  0.80680541     0.00220
N601        N  0.81686463  0.37586017  0.83980506    -0.52570
N602        N  0.84139371  0.30801560  0.80685224    -0.01090
N603        N  0.87497002  0.31762976  0.83993798    -0.55400
N604        N  0.80720507  0.34232831  0.69633217    -0.00080
N605        N  0.81687886  0.37597520  0.66337178    -0.52590
Mn606      Mn  0.84279310  0.25003182  0.75151076     1.20190
Mn607      Mn  0.74913375  0.34361513  0.75156804     1.10090
Cl608      Cl  0.74914180  0.25000764  0.75150983    -0.80560
C609        C  0.85867003  0.35962095  0.64213324     1.01770
C610        C  0.85865949  0.35949093  0.86102371     1.01570
C611        C  0.88948754  0.39032279  0.89423093     0.02920
C612        C  0.88971888  0.10966099  0.89409490     0.02920
C613        C  0.60876950  0.39030238  0.89422457     0.02920
C614        C  0.60858451  0.10964005  0.89409473     0.02920
C615        C  0.52406313  0.99998822  0.84140994     0.05970
C616        C  0.97421600  0.99999483  0.84141129     0.05970
C617        C  0.88948507  0.39045505  0.60891599     0.02920
C618        C  0.60877783  0.39043455  0.60891692     0.02920
C619        C  0.99912591  0.33622269  0.97712783     0.05970
C620        C  0.99912672  0.33627281  0.52605754     0.05970
C621        C  0.60858421  0.10976992  0.60879776     0.02920
C622        C  0.97421989  0.00017797  0.66160948     0.05970
C623        C  0.52406710  0.00017136  0.66160911     0.05970
C624        C  0.66290447  0.47496569  0.50152464     0.05970
C625        C  0.66273751  0.02491807  0.50149056     0.05970
C626        C  0.97419419  0.16402569  0.50142469     0.05970
C627        C  0.52411771  0.16401674  0.50142395     0.05970
C628        C  0.88972496  0.10979070  0.60880307     0.02920
C629        C  0.83536915  0.47499218  0.50152838     0.05970
C630        C  0.83555403  0.02494451  0.50149431     0.05970
C631        C  0.84333760  0.05280958  0.54533973    -0.07870
C632        C  0.85934209  0.07878572  0.57701677    -0.09430
C633        C  0.94652971  0.15614709  0.54535088    -0.07870
C634        C  0.92109681  0.13998707  0.57733467    -0.09430
C635        C  0.94675706  0.04476870  0.65328289    -0.07870
C636        C  0.92141119  0.07706757  0.63698253    -0.09430
C637        C  0.55178128  0.15612923  0.54534833    -0.07870
C638        C  0.57721398  0.13996462  0.57732883    -0.09430
C639        C  0.63896557  0.07876355  0.57701342    -0.07870
C640        C  0.65496426  0.05278506  0.54533627    -0.09430
C641        C  0.55154330  0.04475492  0.65328129    -0.07920
C642        C  0.57689556  0.07704907  0.63697879    -0.09430
C643        C  0.57610077  0.36037396  0.57864546    -0.07870
C644        C  0.54381685  0.34419484  0.55330832    -0.09430
C645        C  0.63901739  0.42087086  0.57663903    -0.07870
C646        C  0.65514404  0.44703486  0.54523485    -0.09430
C647        C  0.55186305  0.45572632  0.65343661    -0.07870
C648        C  0.57768478  0.42367439  0.63729350    -0.09430
C649        C  0.95443954  0.34420905  0.55330797    -0.07870
C650        C  0.92215839  0.36039521  0.57864251    -0.09430
C651        C  0.85924616  0.42089331  0.57664138    -0.07870
C652        C  0.84312308  0.44705960  0.54523825    -0.09430
C653        C  0.92058213  0.42369230  0.63729290    -0.07870
C654        C  0.94641047  0.45573992  0.65343688    -0.09430
C655        C  0.55154416  0.04458219  0.84967110    -0.07870
C656        C  0.57690394  0.07689235  0.86593339    -0.09430
C657        C  0.65497124  0.05272429  0.95760674    -0.07870
C658        C  0.63897533  0.07866605  0.92589960    -0.09430
C659        C  0.57720444  0.13984410  0.92554653    -0.07870
C660        C  0.55177715  0.15605073  0.95751065    -0.09430
C661        C  0.57610325  0.36024733  0.92451199    -0.07870
C662        C  0.54381673  0.34409621  0.94986353    -0.09430
C663        C  0.55185425  0.45555308  0.84964726    -0.07870
C664        C  0.57766778  0.42351568  0.86582891    -0.09430
C665        C  0.65513105  0.44697347  0.95785419    -0.07870
C666        C  0.63899928  0.42077175  0.92648243    -0.09430
C667        C  0.84332705  0.05274904  0.95761028    -0.07870
C668        C  0.85932690  0.07868879  0.92590253    -0.09430
C669        C  0.94674880  0.04459588  0.84967302    -0.07870
C670        C  0.92139599  0.07691061  0.86593438    -0.09430
C671        C  0.92110193  0.13986631  0.92554522    -0.07870
C672        C  0.94653116  0.15606831  0.95751129    -0.09430
C673        C  0.84313242  0.44699807  0.95785770    -0.07870
C674        C  0.85925874  0.42079375  0.92648624    -0.09430
C675        C  0.95443629  0.34411069  0.94986675    -0.07870
C676        C  0.92215126  0.36026889  0.92451946    -0.09430
C677        C  0.92059230  0.42353385  0.86583423    -0.07870
C678        C  0.94641186  0.45556678  0.84965047    -0.09430
N679        N  0.65679311  0.69201443  0.19620584    -0.00720
N680        N  0.62311913  0.68236511  0.16322009    -0.52840
N681        N  0.69100821  0.65772338  0.30671162    -0.00400
N682        N  0.68127050  0.62407793  0.33966209    -0.54960
N683        N  0.65679082  0.69194525  0.30673679     0.00010
N684        N  0.62311808  0.68226653  0.33971389    -0.52810
N685        N  0.69101631  0.65779913  0.19619059     0.00330
N686        N  0.68128554  0.62419191  0.16320141    -0.55320
C687        C  0.63940573  0.64052473  0.14209543     1.01460
C688        C  0.63939389  0.64039615  0.36078694     1.01240
N689        N  0.84150277  0.69196264  0.30673966    -0.00900
N690        N  0.87517746  0.68228885  0.33971602    -0.53410
N691        N  0.80728503  0.65780950  0.19619244     0.00980
N692        N  0.81702215  0.62420223  0.16320591    -0.54670
N693        N  0.84150384  0.69203151  0.19620787    -0.00930
N694        N  0.87518151  0.68238673  0.16322453    -0.53680
N695        N  0.80729010  0.65773376  0.30671298     0.01340
N696        N  0.81703287  0.62408825  0.33966120    -0.54750
Mn697      Mn  0.74914978  0.65642607  0.25145200     1.18440
C698        C  0.85890756  0.64041352  0.36078666     1.03540
C699        C  0.85890140  0.64054155  0.14210150     1.04210
N700        N  0.65687645  0.80799844  0.30685017    -0.00950
N701        N  0.62329621  0.81760813  0.33993328    -0.57260
N702        N  0.69106366  0.84231790  0.19633085     0.00250
N703        N  0.68138455  0.87596505  0.16337295    -0.57930
N704        N  0.65687830  0.80806752  0.19624068    -0.00460
N705        N  0.62330162  0.81770677  0.16316402    -0.57520
N706        N  0.69106829  0.84224175  0.30680353     0.00650
N707        N  0.68139439  0.87585001  0.33980031    -0.58210
Mn708      Mn  0.65549050  0.75001356  0.25150833     1.10660
C709        C  0.63959999  0.85947427  0.36101721     1.04770
C710        C  0.63959517  0.85960382  0.14213404     1.04840
N711        N  0.84139523  0.80808496  0.19624350    -0.00460
N712        N  0.87496971  0.81772901  0.16316582    -0.55840
N713        N  0.80719739  0.84225214  0.30680541     0.00220
N714        N  0.81686463  0.87586017  0.33980506    -0.52570
N715        N  0.84139371  0.80801560  0.30685224    -0.01090
N716        N  0.87497002  0.81762976  0.33993798    -0.55400
N717        N  0.80720507  0.84232830  0.19633217    -0.00080
N718        N  0.81687886  0.87597520  0.16337178    -0.52590
Mn719      Mn  0.84279310  0.75003182  0.25151076     1.20190
Mn720      Mn  0.74913375  0.84361512  0.25156804     1.10090
Cl721      Cl  0.74914180  0.75000764  0.25150983    -0.80560
C722        C  0.85867003  0.85962094  0.14213324     1.01770
C723        C  0.85865949  0.85949093  0.36102371     1.01570
C724        C  0.88948754  0.89032279  0.39423093     0.02920
C725        C  0.88971888  0.60966098  0.39409490     0.02920
C726        C  0.60876950  0.89030238  0.39422457     0.02920
C727        C  0.60858451  0.60964005  0.39409473     0.02920
C728        C  0.52406313  0.49998822  0.34140994     0.05970
C729        C  0.97421600  0.49999483  0.34141129     0.05970
C730        C  0.88948508  0.89045505  0.10891599     0.02920
C731        C  0.60877783  0.89043455  0.10891692     0.02920
C732        C  0.99912591  0.83622269  0.47712784     0.05970
C733        C  0.99912672  0.83627281  0.02605754     0.05970
C734        C  0.60858421  0.60976992  0.10879777     0.02920
C735        C  0.97421989  0.50017796  0.16160948     0.05970
C736        C  0.52406710  0.50017136  0.16160911     0.05970
C737        C  0.66290447  0.97496569  0.00152464     0.05970
C738        C  0.66273751  0.52491807  0.00149056     0.05970
C739        C  0.97419419  0.66402570  0.00142469     0.05970
C740        C  0.52411771  0.66401674  0.00142395     0.05970
C741        C  0.88972496  0.60979070  0.10880307     0.02920
C742        C  0.83536915  0.97499218  0.00152838     0.05970
C743        C  0.83555402  0.52494451  0.00149431     0.05970
C744        C  0.84333760  0.55280958  0.04533973    -0.07870
C745        C  0.85934209  0.57878572  0.07701677    -0.09430
C746        C  0.94652971  0.65614709  0.04535088    -0.07870
C747        C  0.92109681  0.63998707  0.07733467    -0.09430
C748        C  0.94675706  0.54476870  0.15328289    -0.07870
C749        C  0.92141119  0.57706757  0.13698253    -0.09430
C750        C  0.55178128  0.65612923  0.04534834    -0.07870
C751        C  0.57721398  0.63996462  0.07732883    -0.09430
C752        C  0.63896557  0.57876355  0.07701342    -0.07870
C753        C  0.65496426  0.55278506  0.04533627    -0.09430
C754        C  0.55154330  0.54475492  0.15328129    -0.07920
C755        C  0.57689555  0.57704907  0.13697879    -0.09430
C756        C  0.57610077  0.86037396  0.07864546    -0.07870
C757        C  0.54381685  0.84419484  0.05330832    -0.09430
C758        C  0.63901739  0.92087086  0.07663903    -0.07870
C759        C  0.65514404  0.94703486  0.04523485    -0.09430
C760        C  0.55186305  0.95572631  0.15343661    -0.07870
C761        C  0.57768478  0.92367438  0.13729350    -0.09430
C762        C  0.95443954  0.84420904  0.05330797    -0.07870
C763        C  0.92215839  0.86039521  0.07864251    -0.09430
C764        C  0.85924616  0.92089330  0.07664138    -0.07870
C765        C  0.84312308  0.94705960  0.04523825    -0.09430
C766        C  0.92058213  0.92369230  0.13729290    -0.07870
C767        C  0.94641047  0.95573992  0.15343688    -0.09430
C768        C  0.55154415  0.54458219  0.34967110    -0.07870
C769        C  0.57690394  0.57689235  0.36593339    -0.09430
C770        C  0.65497124  0.55272429  0.45760674    -0.07870
C771        C  0.63897532  0.57866605  0.42589960    -0.09430
C772        C  0.57720444  0.63984410  0.42554653    -0.07870
C773        C  0.55177715  0.65605073  0.45751065    -0.09430
C774        C  0.57610325  0.86024733  0.42451199    -0.07870
C775        C  0.54381674  0.84409621  0.44986353    -0.09430
C776        C  0.55185425  0.95555308  0.34964726    -0.07870
C777        C  0.57766778  0.92351568  0.36582891    -0.09430
C778        C  0.65513105  0.94697347  0.45785419    -0.07870
C779        C  0.63899928  0.92077175  0.42648243    -0.09430
C780        C  0.84332704  0.55274904  0.45761028    -0.07870
C781        C  0.85932690  0.57868879  0.42590253    -0.09430
C782        C  0.94674880  0.54459588  0.34967302    -0.07870
C783        C  0.92139599  0.57691060  0.36593438    -0.09430
C784        C  0.92110193  0.63986631  0.42554522    -0.07870
C785        C  0.94653116  0.65606831  0.45751129    -0.09430
C786        C  0.84313242  0.94699807  0.45785770    -0.07870
C787        C  0.85925874  0.92079375  0.42648624    -0.09430
C788        C  0.95443630  0.84411069  0.44986675    -0.07870
C789        C  0.92215126  0.86026889  0.42451946    -0.09430
C790        C  0.92059230  0.92353385  0.36583423    -0.07870
C791        C  0.94641186  0.95556677  0.34965047    -0.09430
N792        N  0.65679311  0.69201443  0.69620583    -0.00720
N793        N  0.62311913  0.68236511  0.66322009    -0.52840
N794        N  0.69100821  0.65772338  0.80671162    -0.00400
N795        N  0.68127050  0.62407794  0.83966209    -0.54960
N796        N  0.65679082  0.69194525  0.80673679     0.00010
N797        N  0.62311808  0.68226653  0.83971389    -0.52810
N798        N  0.69101631  0.65779913  0.69619059     0.00330
N799        N  0.68128554  0.62419191  0.66320141    -0.55320
C800        C  0.63940573  0.64052473  0.64209543     1.01460
C801        C  0.63939389  0.64039616  0.86078694     1.01240
N802        N  0.84150277  0.69196264  0.80673966    -0.00900
N803        N  0.87517746  0.68228885  0.83971602    -0.53410
N804        N  0.80728503  0.65780950  0.69619244     0.00980
N805        N  0.81702215  0.62420223  0.66320591    -0.54670
N806        N  0.84150384  0.69203151  0.69620787    -0.00930
N807        N  0.87518151  0.68238673  0.66322453    -0.53680
N808        N  0.80729010  0.65773376  0.80671298     0.01340
N809        N  0.81703287  0.62408825  0.83966120    -0.54750
Mn810      Mn  0.74914978  0.65642607  0.75145200     1.18440
C811        C  0.85890756  0.64041352  0.86078666     1.03540
C812        C  0.85890140  0.64054155  0.64210149     1.04210
N813        N  0.65687645  0.80799844  0.80685017    -0.00950
N814        N  0.62329621  0.81760814  0.83993328    -0.57260
N815        N  0.69106366  0.84231790  0.69633085     0.00250
N816        N  0.68138455  0.87596506  0.66337295    -0.57930
N817        N  0.65687830  0.80806752  0.69624068    -0.00460
N818        N  0.62330162  0.81770677  0.66316402    -0.57520
N819        N  0.69106829  0.84224175  0.80680353     0.00650
N820        N  0.68139439  0.87585001  0.83980031    -0.58210
Mn821      Mn  0.65549049  0.75001356  0.75150832     1.10660
C822        C  0.63959999  0.85947427  0.86101721     1.04770
C823        C  0.63959517  0.85960382  0.64213404     1.04840
N824        N  0.84139523  0.80808496  0.69624350    -0.00460
N825        N  0.87496971  0.81772901  0.66316582    -0.55840
N826        N  0.80719739  0.84225214  0.80680541     0.00220
N827        N  0.81686463  0.87586017  0.83980506    -0.52570
N828        N  0.84139371  0.80801560  0.80685223    -0.01090
N829        N  0.87497002  0.81762976  0.83993797    -0.55400
N830        N  0.80720507  0.84232831  0.69633217    -0.00080
N831        N  0.81687886  0.87597520  0.66337178    -0.52590
Mn832      Mn  0.84279310  0.75003182  0.75151076     1.20190
Mn833      Mn  0.74913375  0.84361513  0.75156804     1.10090
Cl834      Cl  0.74914180  0.75000764  0.75150982    -0.80560
C835        C  0.85867003  0.85962095  0.64213324     1.01770
C836        C  0.85865949  0.85949093  0.86102371     1.01570
C837        C  0.88948754  0.89032279  0.89423093     0.02920
C838        C  0.88971888  0.60966099  0.89409490     0.02920
C839        C  0.60876950  0.89030238  0.89422457     0.02920
C840        C  0.60858451  0.60964005  0.89409473     0.02920
C841        C  0.52406313  0.49998822  0.84140994     0.05970
C842        C  0.97421600  0.49999484  0.84141129     0.05970
C843        C  0.88948508  0.89045505  0.60891599     0.02920
C844        C  0.60877783  0.89043455  0.60891692     0.02920
C845        C  0.99912591  0.83622268  0.97712783     0.05970
C846        C  0.99912672  0.83627281  0.52605754     0.05970
C847        C  0.60858421  0.60976992  0.60879777     0.02920
C848        C  0.97421989  0.50017796  0.66160949     0.05970
C849        C  0.52406710  0.50017136  0.66160911     0.05970
C850        C  0.66290447  0.97496569  0.50152463     0.05970
C851        C  0.66273751  0.52491807  0.50149056     0.05970
C852        C  0.97419419  0.66402569  0.50142469     0.05970
C853        C  0.52411771  0.66401674  0.50142395     0.05970
C854        C  0.88972496  0.60979070  0.60880307     0.02920
C855        C  0.83536915  0.97499219  0.50152838     0.05970
C856        C  0.83555402  0.52494451  0.50149432     0.05970
C857        C  0.84333760  0.55280958  0.54533973    -0.07870
C858        C  0.85934209  0.57878572  0.57701677    -0.09430
C859        C  0.94652971  0.65614709  0.54535088    -0.07870
C860        C  0.92109681  0.63998707  0.57733467    -0.09430
C861        C  0.94675706  0.54476870  0.65328289    -0.07870
C862        C  0.92141119  0.57706757  0.63698253    -0.09430
C863        C  0.55178128  0.65612923  0.54534833    -0.07870
C864        C  0.57721398  0.63996462  0.57732883    -0.09430
C865        C  0.63896557  0.57876355  0.57701342    -0.07870
C866        C  0.65496426  0.55278505  0.54533627    -0.09430
C867        C  0.55154330  0.54475492  0.65328129    -0.07920
C868        C  0.57689556  0.57704907  0.63697879    -0.09430
C869        C  0.57610077  0.86037397  0.57864546    -0.07870
C870        C  0.54381685  0.84419485  0.55330832    -0.09430
C871        C  0.63901739  0.92087086  0.57663903    -0.07870
C872        C  0.65514404  0.94703486  0.54523485    -0.09430
C873        C  0.55186305  0.95572632  0.65343661    -0.07870
C874        C  0.57768478  0.92367439  0.63729350    -0.09430
C875        C  0.95443954  0.84420905  0.55330797    -0.07870
C876        C  0.92215839  0.86039521  0.57864251    -0.09430
C877        C  0.85924616  0.92089331  0.57664138    -0.07870
C878        C  0.84312308  0.94705960  0.54523825    -0.09430
C879        C  0.92058213  0.92369230  0.63729290    -0.07870
C880        C  0.94641047  0.95573992  0.65343688    -0.09430
C881        C  0.55154415  0.54458219  0.84967110    -0.07870
C882        C  0.57690394  0.57689235  0.86593339    -0.09430
C883        C  0.65497124  0.55272429  0.95760674    -0.07870
C884        C  0.63897532  0.57866605  0.92589960    -0.09430
C885        C  0.57720444  0.63984410  0.92554653    -0.07870
C886        C  0.55177715  0.65605073  0.95751065    -0.09430
C887        C  0.57610325  0.86024733  0.92451199    -0.07870
C888        C  0.54381674  0.84409620  0.94986353    -0.09430
C889        C  0.55185425  0.95555308  0.84964726    -0.07870
C890        C  0.57766778  0.92351568  0.86582892    -0.09430
C891        C  0.65513105  0.94697347  0.95785419    -0.07870
C892        C  0.63899928  0.92077175  0.92648243    -0.09430
C893        C  0.84332704  0.55274904  0.95761028    -0.07870
C894        C  0.85932690  0.57868879  0.92590253    -0.09430
C895        C  0.94674880  0.54459588  0.84967302    -0.07870
C896        C  0.92139599  0.57691061  0.86593438    -0.09430
C897        C  0.92110193  0.63986631  0.92554522    -0.07870
C898        C  0.94653116  0.65606831  0.95751129    -0.09430
C899        C  0.84313242  0.94699807  0.95785770    -0.07870
C900        C  0.85925874  0.92079374  0.92648624    -0.09430
C901        C  0.95443630  0.84411069  0.94986675    -0.07870
C902        C  0.92215126  0.86026888  0.92451946    -0.09430
C903        C  0.92059230  0.92353385  0.86583423    -0.07870
C904        C  0.94641186  0.95556677  0.84965047    -0.09430
loop_ 
_geom_bond_atom_site_label_1 
_geom_bond_atom_site_label_2 
_geom_bond_distance 
_geom_bond_site_symmetry_2 
_ccdc_geom_bond_type 
N1            N2   1.320       .  A
N1            N7   1.315       .  A
N1          Mn30   2.200       .  S
N2            C9   1.354       .  A
N3            N5   1.315       .  A
N3            N4   1.320       .  A
N3          Mn19   2.201       .  S
N4           C10   1.354       .  A
N5            N6   1.320       .  A
N5          Mn30   2.200       .  S
N6           C10   1.354       .  A
N7            N8   1.320       .  A
N7          Mn19   2.201       .  S
N8            C9   1.354       .  A
C9           C56   1.501       .  S
C10          C49   1.501       .  S
N11          N17   1.315       .  A
N11          N12   1.320       .  A
N11         Mn41   2.200       .  S
N12          C20   1.354       .  A
N13          N14   1.320       .  A
N13          N15   1.315       .  A
N13         Mn19   2.201       .  S
N14          C21   1.354       .  A
N15          N16   1.320       .  A
N15         Mn41   2.200       .  S
N16          C21   1.354       .  A
N17          N18   1.320       .  A
N17         Mn19   2.201       .  S
N18          C20   1.354       .  A
Mn19        Cl43   2.545       .  S
C20          C47   1.501       .  S
C21          C63   1.501       .  S
N22          N23   1.320       .  A
N22          N28   1.315       .  A
N22         Mn30   2.201       .  S
N23          C31   1.354       .  A
N24          N26   1.315       .  A
N24          N25   1.320       .  A
N24         Mn42   2.199       .  S
N25          C32   1.354       .  A
N26          N27   1.320       .  A
N26         Mn30   2.201       .  S
N27          C32   1.354       .  A
N28          N29   1.320       .  A
N28         Mn42   2.199       .  S
N29          C31   1.354       .  A
Mn30        Cl43   2.544       .  S
C31          C48   1.501       .  S
C32          C53   1.501       .  S
N33          N34   1.320       .  A
N33          N39   1.315       .  A
N33         Mn41   2.201       .  S
N34          C44   1.354       .  A
N35          N36   1.320       .  A
N35          N37   1.315       .  A
N35         Mn42   2.199       .  S
N36          C45   1.354       .  A
N37          N38   1.320       .  A
N37         Mn41   2.201       .  S
N38          C45   1.354       .  A
N39          N40   1.320       .  A
N39         Mn42   2.199       .  S
N40          C44   1.354       .  A
Mn41        Cl43   2.544       .  S
Mn42        Cl43   2.545       .  S
C44          C52   1.501       .  S
C45          C46   1.501       .  S
C46         C109   1.470       .  S
C46         C111   1.470       .  S
C46         C112   1.466       .  S
C47         C103   1.473       .  S
C47         C105   1.464       .  S
C47         C106   1.470       .  S
C48          C96   1.470       .  S
C48          C99   1.466       .  S
C48         C101   1.470       .  S
C49          C91   1.464       .  S
C49          C93   1.473       .  S
C49          C94   1.470       .  S
C50          C90   1.442   1_565  S
C50         C324   1.443       .  S
C50         C503   1.354   1_455  D
C51         C104   1.442   1_565  S
C51         C339   1.443       .  S
C51         C502   1.354       .  D
C52          C85   1.470       .  S
C52          C86   1.470       .  S
C52          C88   1.466       .  S
C53          C78   1.470       .  S
C53          C80   1.470       .  S
C53          C83   1.466       .  S
C54         C110   1.446       .  S
C54         C549   1.446       .  S
C54         C168   1.357       .  D
C55          C84   1.446       .  S
C55         C531   1.446       .  S
C55         C167   1.357   1_554  D
C56          C73   1.470       .  S
C56          C74   1.473       .  S
C56          C77   1.464       .  S
C57          C70   1.442       .  S
C57         C315   1.443   1_545  S
C57         C510   1.354       .  D
C58          C76   1.442       .  S
C58         C308   1.443   1_545  S
C58         C509   1.354   1_455  D
C59          C81   1.446       .  S
C59         C213   1.446   1_554  S
C59         C286   1.358       .  D
C60          C75   1.448       .  S
C60         C205   1.448   1_554  S
C60         C285   1.358   1_545  D
C61          C68   1.447       .  S
C61         C220   1.447   1_554  S
C61         C514   1.356       .  D
C62          C72   1.447       .  S
C62         C208   1.447   1_554  S
C62         C513   1.356   1_455  D
C63          C67   1.473       .  S
C63          C69   1.470       .  S
C63          C71   1.464       .  S
C64          C87   1.446       .  S
C64         C221   1.446   1_554  S
C64         C291   1.358       .  D
C65          C66   1.448       .  S
C65         C215   1.448   1_554  S
C65         C290   1.358   1_545  D
C66          C67   1.208       .  T
C68          C69   1.207       .  T
C70          C71   1.204       .  T
C72          C73   1.207       .  T
C74          C75   1.208       .  T
C76          C77   1.204       .  T
C78          C79   1.207       .  T
C79         C507   1.446   1_455  S
C80          C81   1.207       .  T
C82         C284   1.443       .  S
C82          C83   1.205       .  T
C84          C85   1.207       .  T
C86          C87   1.207       .  T
C88          C89   1.205       .  T
C89         C283   1.443       .  S
C90          C91   1.204       .  T
C92         C173   1.448       .  S
C92          C93   1.208       .  T
C94          C95   1.207       .  T
C95         C175   1.447       .  S
C96          C97   1.207       .  T
C97         C506   1.446   1_455  S
C98         C276   1.443       .  S
C98          C99   1.205       .  T
C100        C172   1.446       .  S
C100        C101   1.207       .  T
C102        C178   1.448       .  S
C102        C103   1.208       .  T
C104        C105   1.204       .  T
C106        C107   1.207       .  T
C107        C174   1.447       .  S
C108        C177   1.446       .  S
C108        C109   1.207       .  T
C110        C111   1.207       .  T
C112        C113   1.205       .  T
C113        C277   1.443       .  S
N114        N115   1.320       .  A
N114        N120   1.315       .  A
N114       Mn143   2.200       .  S
N115        C122   1.354       .  A
N116        N118   1.315       .  A
N116        N117   1.320       .  A
N116       Mn132   2.201       .  S
N117        C123   1.354       .  A
N118        N119   1.320       .  A
N118       Mn143   2.200       .  S
N119        C123   1.354       .  A
N120        N121   1.320       .  A
N120       Mn132   2.201       .  S
N121        C122   1.354       .  A
C122        C169   1.501       .  S
C123        C162   1.501       .  S
N124        N130   1.315       .  A
N124        N125   1.320       .  A
N124       Mn154   2.200       .  S
N125        C133   1.354       .  A
N126        N127   1.320       .  A
N126        N128   1.315       .  A
N126       Mn132   2.201       .  S
N127        C134   1.354       .  A
N128        N129   1.320       .  A
N128       Mn154   2.200       .  S
N129        C134   1.354       .  A
N130        N131   1.320       .  A
N130       Mn132   2.201       .  S
N131        C133   1.354       .  A
Mn132      Cl156   2.545       .  S
C133        C160   1.501       .  S
C134        C176   1.501       .  S
N135        N136   1.320       .  A
N135        N141   1.315       .  A
N135       Mn143   2.201       .  S
N136        C144   1.354       .  A
N137        N139   1.315       .  A
N137        N138   1.320       .  A
N137       Mn155   2.199       .  S
N138        C145   1.354       .  A
N139        N140   1.320       .  A
N139       Mn143   2.201       .  S
N140        C145   1.354       .  A
N141        N142   1.320       .  A
N141       Mn155   2.199       .  S
N142        C144   1.354       .  A
Mn143      Cl156   2.544       .  S
C144        C161   1.501       .  S
C145        C166   1.501       .  S
N146        N147   1.320       .  A
N146        N152   1.315       .  A
N146       Mn154   2.201       .  S
N147        C157   1.354       .  A
N148        N149   1.320       .  A
N148        N150   1.315       .  A
N148       Mn155   2.199       .  S
N149        C158   1.354       .  A
N150        N151   1.320       .  A
N150       Mn154   2.201       .  S
N151        C158   1.354       .  A
N152        N153   1.320       .  A
N152       Mn155   2.199       .  S
N153        C157   1.354       .  A
Mn154      Cl156   2.544       .  S
Mn155      Cl156   2.545       .  S
C157        C165   1.501       .  S
C158        C159   1.501       .  S
C159        C222   1.470       .  S
C159        C224   1.470       .  S
C159        C225   1.466       .  S
C160        C216   1.473       .  S
C160        C218   1.464       .  S
C160        C219   1.470       .  S
C161        C209   1.470       .  S
C161        C212   1.466       .  S
C161        C214   1.470       .  S
C162        C204   1.464       .  S
C162        C206   1.473       .  S
C162        C207   1.470       .  S
C163        C203   1.442   1_565  S
C163        C437   1.443       .  S
C163        C616   1.354   1_455  D
C164        C217   1.442   1_565  S
C164        C452   1.443       .  S
C164        C615   1.354       .  D
C165        C198   1.470       .  S
C165        C199   1.470       .  S
C165        C201   1.466       .  S
C166        C191   1.470       .  S
C166        C193   1.470       .  S
C166        C196   1.466       .  S
C167        C662   1.446       .  S
C167        C223   1.446       .  S
C168        C644   1.446       .  S
C168        C197   1.446       .  S
C169        C186   1.470       .  S
C169        C187   1.473       .  S
C169        C190   1.464       .  S
C170        C183   1.442       .  S
C170        C428   1.443   1_545  S
C170        C623   1.354       .  D
C171        C189   1.442       .  S
C171        C421   1.443   1_545  S
C171        C622   1.354   1_455  D
C172        C194   1.446       .  S
C172        C399   1.358       .  D
C173        C188   1.448       .  S
C173        C398   1.358   1_545  D
C174        C181   1.447       .  S
C174        C627   1.356       .  D
C175        C185   1.447       .  S
C175        C626   1.356   1_455  D
C176        C180   1.473       .  S
C176        C182   1.470       .  S
C176        C184   1.464       .  S
C177        C200   1.446       .  S
C177        C404   1.358       .  D
C178        C179   1.448       .  S
C178        C403   1.358   1_545  D
C179        C180   1.208       .  T
C181        C182   1.207       .  T
C183        C184   1.204       .  T
C185        C186   1.207       .  T
C187        C188   1.208       .  T
C189        C190   1.204       .  T
C191        C192   1.207       .  T
C192        C620   1.446   1_455  S
C193        C194   1.207       .  T
C195        C397   1.443       .  S
C195        C196   1.205       .  T
C197        C198   1.207       .  T
C199        C200   1.207       .  T
C201        C202   1.205       .  T
C202        C396   1.443       .  S
C203        C204   1.204       .  T
C205        C206   1.208       .  T
C207        C208   1.207       .  T
C209        C210   1.207       .  T
C210        C619   1.446   1_455  S
C211        C389   1.443       .  S
C211        C212   1.205       .  T
C213        C214   1.207       .  T
C215        C216   1.208       .  T
C217        C218   1.204       .  T
C219        C220   1.207       .  T
C221        C222   1.207       .  T
C223        C224   1.207       .  T
C225        C226   1.205       .  T
C226        C390   1.443       .  S
N227        N228   1.320       .  A
N227        N233   1.315       .  A
N227       Mn256   2.200       .  S
N228        C235   1.354       .  A
N229        N231   1.315       .  A
N229        N230   1.320       .  A
N229       Mn245   2.201       .  S
N230        C236   1.354       .  A
N231        N232   1.320       .  A
N231       Mn256   2.200       .  S
N232        C236   1.354       .  A
N233        N234   1.320       .  A
N233       Mn245   2.201       .  S
N234        C235   1.354       .  A
C235        C282   1.501       .  S
C236        C275   1.501       .  S
N237        N243   1.315       .  A
N237        N238   1.320       .  A
N237       Mn267   2.200       .  S
N238        C246   1.354       .  A
N239        N240   1.320       .  A
N239        N241   1.315       .  A
N239       Mn245   2.201       .  S
N240        C247   1.354       .  A
N241        N242   1.320       .  A
N241       Mn267   2.200       .  S
N242        C247   1.354       .  A
N243        N244   1.320       .  A
N243       Mn245   2.201       .  S
N244        C246   1.354       .  A
Mn245      Cl269   2.545       .  S
C246        C273   1.501       .  S
C247        C289   1.501       .  S
N248        N249   1.320       .  A
N248        N254   1.315       .  A
N248       Mn256   2.201       .  S
N249        C257   1.354       .  A
N250        N252   1.315       .  A
N250        N251   1.320       .  A
N250       Mn268   2.199       .  S
N251        C258   1.354       .  A
N252        N253   1.320       .  A
N252       Mn256   2.201       .  S
N253        C258   1.354       .  A
N254        N255   1.320       .  A
N254       Mn268   2.199       .  S
N255        C257   1.354       .  A
Mn256      Cl269   2.544       .  S
C257        C274   1.501       .  S
C258        C279   1.501       .  S
N259        N260   1.320       .  A
N259        N265   1.315       .  A
N259       Mn267   2.201       .  S
N260        C270   1.354       .  A
N261        N262   1.320       .  A
N261        N263   1.315       .  A
N261       Mn268   2.199       .  S
N262        C271   1.354       .  A
N263        N264   1.320       .  A
N263       Mn267   2.201       .  S
N264        C271   1.354       .  A
N265        N266   1.320       .  A
N265       Mn268   2.199       .  S
N266        C270   1.354       .  A
Mn267      Cl269   2.544       .  S
Mn268      Cl269   2.545       .  S
C270        C278   1.501       .  S
C271        C272   1.501       .  S
C272        C335   1.470       .  S
C272        C337   1.470       .  S
C272        C338   1.466       .  S
C273        C329   1.473       .  S
C273        C331   1.464       .  S
C273        C332   1.470       .  S
C274        C322   1.470       .  S
C274        C325   1.466       .  S
C274        C327   1.470       .  S
C275        C317   1.464       .  S
C275        C319   1.473       .  S
C275        C320   1.470       .  S
C276        C316   1.442       .  S
C276        C729   1.354   1_455  D
C277        C330   1.442       .  S
C277        C728   1.354       .  D
C278        C311   1.470       .  S
C278        C312   1.470       .  S
C278        C314   1.466       .  S
C279        C304   1.470       .  S
C279        C306   1.470       .  S
C279        C309   1.466       .  S
C280        C775   1.446       .  S
C280        C336   1.446       .  S
C280        C394   1.357       .  D
C281        C757   1.446       .  S
C281        C310   1.446       .  S
C281        C393   1.357   1_554  D
C282        C299   1.470       .  S
C282        C300   1.473       .  S
C282        C303   1.464       .  S
C283        C296   1.442       .  S
C283        C736   1.354       .  D
C284        C302   1.442       .  S
C284        C735   1.354   1_455  D
C285        C307   1.446       .  S
C285        C439   1.446   1_554  S
C286        C301   1.448       .  S
C286        C431   1.448   1_554  S
C287        C294   1.447       .  S
C287        C446   1.447   1_554  S
C287        C740   1.356       .  D
C288        C298   1.447       .  S
C288        C434   1.447   1_554  S
C288        C739   1.356   1_455  D
C289        C293   1.473       .  S
C289        C295   1.470       .  S
C289        C297   1.464       .  S
C290        C313   1.446       .  S
C290        C447   1.446   1_554  S
C291        C292   1.448       .  S
C291        C441   1.448   1_554  S
C292        C293   1.208       .  T
C294        C295   1.207       .  T
C296        C297   1.204       .  T
C298        C299   1.207       .  T
C300        C301   1.208       .  T
C302        C303   1.204       .  T
C304        C305   1.207       .  T
C305        C733   1.446   1_455  S
C306        C307   1.207       .  T
C308        C309   1.205       .  T
C310        C311   1.207       .  T
C312        C313   1.207       .  T
C314        C315   1.205       .  T
C316        C317   1.204       .  T
C318        C399   1.448       .  S
C318        C319   1.208       .  T
C320        C321   1.207       .  T
C321        C401   1.447       .  S
C322        C323   1.207       .  T
C323        C732   1.446   1_455  S
C324        C325   1.205       .  T
C326        C398   1.446       .  S
C326        C327   1.207       .  T
C328        C404   1.448       .  S
C328        C329   1.208       .  T
C330        C331   1.204       .  T
C332        C333   1.207       .  T
C333        C400   1.447       .  S
C334        C403   1.446       .  S
C334        C335   1.207       .  T
C336        C337   1.207       .  T
C338        C339   1.205       .  T
N340        N341   1.320       .  A
N340        N346   1.315       .  A
N340       Mn369   2.200       .  S
N341        C348   1.354       .  A
N342        N344   1.315       .  A
N342        N343   1.320       .  A
N342       Mn358   2.201       .  S
N343        C349   1.354       .  A
N344        N345   1.320       .  A
N344       Mn369   2.200       .  S
N345        C349   1.354       .  A
N346        N347   1.320       .  A
N346       Mn358   2.201       .  S
N347        C348   1.354       .  A
C348        C395   1.501       .  S
C349        C388   1.501       .  S
N350        N356   1.315       .  A
N350        N351   1.320       .  A
N350       Mn380   2.200       .  S
N351        C359   1.354       .  A
N352        N353   1.320       .  A
N352        N354   1.315       .  A
N352       Mn358   2.201       .  S
N353        C360   1.354       .  A
N354        N355   1.320       .  A
N354       Mn380   2.200       .  S
N355        C360   1.354       .  A
N356        N357   1.320       .  A
N356       Mn358   2.201       .  S
N357        C359   1.354       .  A
Mn358      Cl382   2.545       .  S
C359        C386   1.501       .  S
C360        C402   1.501       .  S
N361        N362   1.320       .  A
N361        N367   1.315       .  A
N361       Mn369   2.201       .  S
N362        C370   1.354       .  A
N363        N365   1.315       .  A
N363        N364   1.320       .  A
N363       Mn381   2.199       .  S
N364        C371   1.354       .  A
N365        N366   1.320       .  A
N365       Mn369   2.201       .  S
N366        C371   1.354       .  A
N367        N368   1.320       .  A
N367       Mn381   2.199       .  S
N368        C370   1.354       .  A
Mn369      Cl382   2.544       .  S
C370        C387   1.501       .  S
C371        C392   1.501       .  S
N372        N373   1.320       .  A
N372        N378   1.315       .  A
N372       Mn380   2.201       .  S
N373        C383   1.354       .  A
N374        N375   1.320       .  A
N374        N376   1.315       .  A
N374       Mn381   2.199       .  S
N375        C384   1.354       .  A
N376        N377   1.320       .  A
N376       Mn380   2.201       .  S
N377        C384   1.354       .  A
N378        N379   1.320       .  A
N378       Mn381   2.199       .  S
N379        C383   1.354       .  A
Mn380      Cl382   2.544       .  S
Mn381      Cl382   2.545       .  S
C383        C391   1.501       .  S
C384        C385   1.501       .  S
C385        C448   1.470       .  S
C385        C450   1.470       .  S
C385        C451   1.466       .  S
C386        C442   1.473       .  S
C386        C444   1.464       .  S
C386        C445   1.470       .  S
C387        C435   1.470       .  S
C387        C438   1.466       .  S
C387        C440   1.470       .  S
C388        C430   1.464       .  S
C388        C432   1.473       .  S
C388        C433   1.470       .  S
C389        C429   1.442       .  S
C389        C842   1.354   1_455  D
C390        C443   1.442       .  S
C390        C841   1.354       .  D
C391        C424   1.470       .  S
C391        C425   1.470       .  S
C391        C427   1.466       .  S
C392        C417   1.470       .  S
C392        C419   1.470       .  S
C392        C422   1.466       .  S
C393        C888   1.446       .  S
C393        C449   1.446       .  S
C394        C870   1.446       .  S
C394        C423   1.446       .  S
C395        C412   1.470       .  S
C395        C413   1.473       .  S
C395        C416   1.464       .  S
C396        C409   1.442       .  S
C396        C849   1.354       .  D
C397        C415   1.442       .  S
C397        C848   1.354   1_455  D
C398        C420   1.446       .  S
C399        C414   1.448       .  S
C400        C407   1.447       .  S
C400        C853   1.356       .  D
C401        C411   1.447       .  S
C401        C852   1.356   1_455  D
C402        C406   1.473       .  S
C402        C408   1.470       .  S
C402        C410   1.464       .  S
C403        C426   1.446       .  S
C404        C405   1.448       .  S
C405        C406   1.208       .  T
C407        C408   1.207       .  T
C409        C410   1.204       .  T
C411        C412   1.207       .  T
C413        C414   1.208       .  T
C415        C416   1.204       .  T
C417        C418   1.207       .  T
C418        C846   1.446   1_455  S
C419        C420   1.207       .  T
C421        C422   1.205       .  T
C423        C424   1.207       .  T
C425        C426   1.207       .  T
C427        C428   1.205       .  T
C429        C430   1.204       .  T
C431        C432   1.208       .  T
C433        C434   1.207       .  T
C435        C436   1.207       .  T
C436        C845   1.446   1_455  S
C437        C438   1.205       .  T
C439        C440   1.207       .  T
C441        C442   1.208       .  T
C443        C444   1.204       .  T
C445        C446   1.207       .  T
C447        C448   1.207       .  T
C449        C450   1.207       .  T
C451        C452   1.205       .  T
N453        N454   1.320       .  A
N453        N459   1.315       .  A
N453       Mn482   2.200       .  S
N454        C461   1.354       .  A
N455        N457   1.315       .  A
N455        N456   1.320       .  A
N455       Mn471   2.201       .  S
N456        C462   1.354       .  A
N457        N458   1.320       .  A
N457       Mn482   2.200       .  S
N458        C462   1.354       .  A
N459        N460   1.320       .  A
N459       Mn471   2.201       .  S
N460        C461   1.354       .  A
C461        C508   1.501       .  S
C462        C501   1.501       .  S
N463        N469   1.315       .  A
N463        N464   1.320       .  A
N463       Mn493   2.200       .  S
N464        C472   1.354       .  A
N465        N466   1.320       .  A
N465        N467   1.315       .  A
N465       Mn471   2.201       .  S
N466        C473   1.354       .  A
N467        N468   1.320       .  A
N467       Mn493   2.200       .  S
N468        C473   1.354       .  A
N469        N470   1.320       .  A
N469       Mn471   2.201       .  S
N470        C472   1.354       .  A
Mn471      Cl495   2.545       .  S
C472        C499   1.501       .  S
C473        C515   1.501       .  S
N474        N475   1.320       .  A
N474        N480   1.315       .  A
N474       Mn482   2.201       .  S
N475        C483   1.354       .  A
N476        N478   1.315       .  A
N476        N477   1.320       .  A
N476       Mn494   2.199       .  S
N477        C484   1.354       .  A
N478        N479   1.320       .  A
N478       Mn482   2.201       .  S
N479        C484   1.354       .  A
N480        N481   1.320       .  A
N480       Mn494   2.199       .  S
N481        C483   1.354       .  A
Mn482      Cl495   2.544       .  S
C483        C500   1.501       .  S
C484        C505   1.501       .  S
N485        N486   1.320       .  A
N485        N491   1.315       .  A
N485       Mn493   2.201       .  S
N486        C496   1.354       .  A
N487        N488   1.320       .  A
N487        N489   1.315       .  A
N487       Mn494   2.199       .  S
N488        C497   1.354       .  A
N489        N490   1.320       .  A
N489       Mn493   2.201       .  S
N490        C497   1.354       .  A
N491        N492   1.320       .  A
N491       Mn494   2.199       .  S
N492        C496   1.354       .  A
Mn493      Cl495   2.544       .  S
Mn494      Cl495   2.545       .  S
C496        C504   1.501       .  S
C497        C498   1.501       .  S
C498        C561   1.470       .  S
C498        C563   1.470       .  S
C498        C564   1.466       .  S
C499        C555   1.473       .  S
C499        C557   1.464       .  S
C499        C558   1.470       .  S
C500        C548   1.470       .  S
C500        C551   1.466       .  S
C500        C553   1.470       .  S
C501        C543   1.464       .  S
C501        C545   1.473       .  S
C501        C546   1.470       .  S
C502        C542   1.442   1_565  S
C502        C776   1.443       .  S
C503        C556   1.442   1_565  S
C503        C791   1.443       .  S
C504        C537   1.470       .  S
C504        C538   1.470       .  S
C504        C540   1.466       .  S
C505        C530   1.470       .  S
C505        C532   1.470       .  S
C505        C535   1.466       .  S
C506        C562   1.446       .  S
C506        C620   1.357       .  D
C507        C536   1.446       .  S
C507        C619   1.357   1_554  D
C508        C525   1.470       .  S
C508        C526   1.473       .  S
C508        C529   1.464       .  S
C509        C522   1.442       .  S
C509        C767   1.443   1_545  S
C510        C528   1.442       .  S
C510        C760   1.443   1_545  S
C511        C533   1.446       .  S
C511        C665   1.446   1_554  S
C511        C738   1.358       .  D
C512        C527   1.448       .  S
C512        C657   1.448   1_554  S
C512        C737   1.358   1_545  D
C513        C520   1.447       .  S
C513        C672   1.447   1_554  S
C514        C524   1.447       .  S
C514        C660   1.447   1_554  S
C515        C519   1.473       .  S
C515        C521   1.470       .  S
C515        C523   1.464       .  S
C516        C539   1.446       .  S
C516        C673   1.446   1_554  S
C516        C743   1.358       .  D
C517        C518   1.448       .  S
C517        C667   1.448   1_554  S
C517        C742   1.358   1_545  D
C518        C519   1.208       .  T
C520        C521   1.207       .  T
C522        C523   1.204       .  T
C524        C525   1.207       .  T
C526        C527   1.208       .  T
C528        C529   1.204       .  T
C530        C531   1.207       .  T
C532        C533   1.207       .  T
C534        C736   1.443       .  S
C534        C535   1.205       .  T
C536        C537   1.207       .  T
C538        C539   1.207       .  T
C540        C541   1.205       .  T
C541        C735   1.443       .  S
C542        C543   1.204       .  T
C544        C625   1.448       .  S
C544        C545   1.208       .  T
C546        C547   1.207       .  T
C547        C627   1.447       .  S
C548        C549   1.207       .  T
C550        C728   1.443       .  S
C550        C551   1.205       .  T
C552        C624   1.446       .  S
C552        C553   1.207       .  T
C554        C630   1.448       .  S
C554        C555   1.208       .  T
C556        C557   1.204       .  T
C558        C559   1.207       .  T
C559        C626   1.447       .  S
C560        C629   1.446       .  S
C560        C561   1.207       .  T
C562        C563   1.207       .  T
C564        C565   1.205       .  T
C565        C729   1.443       .  S
N566        N567   1.320       .  A
N566        N572   1.315       .  A
N566       Mn595   2.200       .  S
N567        C574   1.354       .  A
N568        N570   1.315       .  A
N568        N569   1.320       .  A
N568       Mn584   2.201       .  S
N569        C575   1.354       .  A
N570        N571   1.320       .  A
N570       Mn595   2.200       .  S
N571        C575   1.354       .  A
N572        N573   1.320       .  A
N572       Mn584   2.201       .  S
N573        C574   1.354       .  A
C574        C621   1.501       .  S
C575        C614   1.501       .  S
N576        N582   1.315       .  A
N576        N577   1.320       .  A
N576       Mn606   2.200       .  S
N577        C585   1.354       .  A
N578        N579   1.320       .  A
N578        N580   1.315       .  A
N578       Mn584   2.201       .  S
N579        C586   1.354       .  A
N580        N581   1.320       .  A
N580       Mn606   2.200       .  S
N581        C586   1.354       .  A
N582        N583   1.320       .  A
N582       Mn584   2.201       .  S
N583        C585   1.354       .  A
Mn584      Cl608   2.545       .  S
C585        C612   1.501       .  S
C586        C628   1.501       .  S
N587        N588   1.320       .  A
N587        N593   1.315       .  A
N587       Mn595   2.201       .  S
N588        C596   1.354       .  A
N589        N591   1.315       .  A
N589        N590   1.320       .  A
N589       Mn607   2.199       .  S
N590        C597   1.354       .  A
N591        N592   1.320       .  A
N591       Mn595   2.201       .  S
N592        C597   1.354       .  A
N593        N594   1.320       .  A
N593       Mn607   2.199       .  S
N594        C596   1.354       .  A
Mn595      Cl608   2.544       .  S
C596        C613   1.501       .  S
C597        C618   1.501       .  S
N598        N599   1.320       .  A
N598        N604   1.315       .  A
N598       Mn606   2.201       .  S
N599        C609   1.354       .  A
N600        N601   1.320       .  A
N600        N602   1.315       .  A
N600       Mn607   2.199       .  S
N601        C610   1.354       .  A
N602        N603   1.320       .  A
N602       Mn606   2.201       .  S
N603        C610   1.354       .  A
N604        N605   1.320       .  A
N604       Mn607   2.199       .  S
N605        C609   1.354       .  A
Mn606      Cl608   2.544       .  S
Mn607      Cl608   2.545       .  S
C609        C617   1.501       .  S
C610        C611   1.501       .  S
C611        C674   1.470       .  S
C611        C676   1.470       .  S
C611        C677   1.466       .  S
C612        C668   1.473       .  S
C612        C670   1.464       .  S
C612        C671   1.470       .  S
C613        C661   1.470       .  S
C613        C664   1.466       .  S
C613        C666   1.470       .  S
C614        C656   1.464       .  S
C614        C658   1.473       .  S
C614        C659   1.470       .  S
C615        C655   1.442   1_565  S
C615        C889   1.443       .  S
C616        C669   1.442   1_565  S
C616        C904   1.443       .  S
C617        C650   1.470       .  S
C617        C651   1.470       .  S
C617        C653   1.466       .  S
C618        C643   1.470       .  S
C618        C645   1.470       .  S
C618        C648   1.466       .  S
C619        C675   1.446       .  S
C620        C649   1.446       .  S
C621        C638   1.470       .  S
C621        C639   1.473       .  S
C621        C642   1.464       .  S
C622        C635   1.442       .  S
C622        C880   1.443   1_545  S
C623        C641   1.442       .  S
C623        C873   1.443   1_545  S
C624        C646   1.446       .  S
C624        C851   1.358       .  D
C625        C640   1.448       .  S
C625        C850   1.358   1_545  D
C626        C633   1.447       .  S
C627        C637   1.447       .  S
C628        C632   1.473       .  S
C628        C634   1.470       .  S
C628        C636   1.464       .  S
C629        C652   1.446       .  S
C629        C856   1.358       .  D
C630        C631   1.448       .  S
C630        C855   1.358   1_545  D
C631        C632   1.208       .  T
C633        C634   1.207       .  T
C635        C636   1.204       .  T
C637        C638   1.207       .  T
C639        C640   1.208       .  T
C641        C642   1.204       .  T
C643        C644   1.207       .  T
C645        C646   1.207       .  T
C647        C849   1.443       .  S
C647        C648   1.205       .  T
C649        C650   1.207       .  T
C651        C652   1.207       .  T
C653        C654   1.205       .  T
C654        C848   1.443       .  S
C655        C656   1.204       .  T
C657        C658   1.208       .  T
C659        C660   1.207       .  T
C661        C662   1.207       .  T
C663        C841   1.443       .  S
C663        C664   1.205       .  T
C665        C666   1.207       .  T
C667        C668   1.208       .  T
C669        C670   1.204       .  T
C671        C672   1.207       .  T
C673        C674   1.207       .  T
C675        C676   1.207       .  T
C677        C678   1.205       .  T
C678        C842   1.443       .  S
N679        N680   1.320       .  A
N679        N685   1.315       .  A
N679       Mn708   2.200       .  S
N680        C687   1.354       .  A
N681        N683   1.315       .  A
N681        N682   1.320       .  A
N681       Mn697   2.201       .  S
N682        C688   1.354       .  A
N683        N684   1.320       .  A
N683       Mn708   2.200       .  S
N684        C688   1.354       .  A
N685        N686   1.320       .  A
N685       Mn697   2.201       .  S
N686        C687   1.354       .  A
C687        C734   1.501       .  S
C688        C727   1.501       .  S
N689        N695   1.315       .  A
N689        N690   1.320       .  A
N689       Mn719   2.200       .  S
N690        C698   1.354       .  A
N691        N692   1.320       .  A
N691        N693   1.315       .  A
N691       Mn697   2.201       .  S
N692        C699   1.354       .  A
N693        N694   1.320       .  A
N693       Mn719   2.200       .  S
N694        C699   1.354       .  A
N695        N696   1.320       .  A
N695       Mn697   2.201       .  S
N696        C698   1.354       .  A
Mn697      Cl721   2.545       .  S
C698        C725   1.501       .  S
C699        C741   1.501       .  S
N700        N701   1.320       .  A
N700        N706   1.315       .  A
N700       Mn708   2.201       .  S
N701        C709   1.354       .  A
N702        N704   1.315       .  A
N702        N703   1.320       .  A
N702       Mn720   2.199       .  S
N703        C710   1.354       .  A
N704        N705   1.320       .  A
N704       Mn708   2.201       .  S
N705        C710   1.354       .  A
N706        N707   1.320       .  A
N706       Mn720   2.199       .  S
N707        C709   1.354       .  A
Mn708      Cl721   2.544       .  S
C709        C726   1.501       .  S
C710        C731   1.501       .  S
N711        N712   1.320       .  A
N711        N717   1.315       .  A
N711       Mn719   2.201       .  S
N712        C722   1.354       .  A
N713        N714   1.320       .  A
N713        N715   1.315       .  A
N713       Mn720   2.199       .  S
N714        C723   1.354       .  A
N715        N716   1.320       .  A
N715       Mn719   2.201       .  S
N716        C723   1.354       .  A
N717        N718   1.320       .  A
N717       Mn720   2.199       .  S
N718        C722   1.354       .  A
Mn719      Cl721   2.544       .  S
Mn720      Cl721   2.545       .  S
C722        C730   1.501       .  S
C723        C724   1.501       .  S
C724        C787   1.470       .  S
C724        C789   1.470       .  S
C724        C790   1.466       .  S
C725        C781   1.473       .  S
C725        C783   1.464       .  S
C725        C784   1.470       .  S
C726        C774   1.470       .  S
C726        C777   1.466       .  S
C726        C779   1.470       .  S
C727        C769   1.464       .  S
C727        C771   1.473       .  S
C727        C772   1.470       .  S
C728        C768   1.442       .  S
C729        C782   1.442       .  S
C730        C763   1.470       .  S
C730        C764   1.470       .  S
C730        C766   1.466       .  S
C731        C756   1.470       .  S
C731        C758   1.470       .  S
C731        C761   1.466       .  S
C732        C788   1.446       .  S
C732        C846   1.357       .  D
C733        C762   1.446       .  S
C733        C845   1.357   1_554  D
C734        C751   1.470       .  S
C734        C752   1.473       .  S
C734        C755   1.464       .  S
C735        C748   1.442       .  S
C736        C754   1.442       .  S
C737        C759   1.446       .  S
C737        C891   1.446   1_554  S
C738        C753   1.448       .  S
C738        C883   1.448   1_554  S
C739        C746   1.447       .  S
C739        C898   1.447   1_554  S
C740        C750   1.447       .  S
C740        C886   1.447   1_554  S
C741        C745   1.473       .  S
C741        C747   1.470       .  S
C741        C749   1.464       .  S
C742        C765   1.446       .  S
C742        C899   1.446   1_554  S
C743        C744   1.448       .  S
C743        C893   1.448   1_554  S
C744        C745   1.208       .  T
C746        C747   1.207       .  T
C748        C749   1.204       .  T
C750        C751   1.207       .  T
C752        C753   1.208       .  T
C754        C755   1.204       .  T
C756        C757   1.207       .  T
C758        C759   1.207       .  T
C760        C761   1.205       .  T
C762        C763   1.207       .  T
C764        C765   1.207       .  T
C766        C767   1.205       .  T
C768        C769   1.204       .  T
C770        C851   1.448       .  S
C770        C771   1.208       .  T
C772        C773   1.207       .  T
C773        C853   1.447       .  S
C774        C775   1.207       .  T
C776        C777   1.205       .  T
C778        C850   1.446       .  S
C778        C779   1.207       .  T
C780        C856   1.448       .  S
C780        C781   1.208       .  T
C782        C783   1.204       .  T
C784        C785   1.207       .  T
C785        C852   1.447       .  S
C786        C855   1.446       .  S
C786        C787   1.207       .  T
C788        C789   1.207       .  T
C790        C791   1.205       .  T
N792        N793   1.320       .  A
N792        N798   1.315       .  A
N792       Mn821   2.200       .  S
N793        C800   1.354       .  A
N794        N796   1.315       .  A
N794        N795   1.320       .  A
N794       Mn810   2.201       .  S
N795        C801   1.354       .  A
N796        N797   1.320       .  A
N796       Mn821   2.200       .  S
N797        C801   1.354       .  A
N798        N799   1.320       .  A
N798       Mn810   2.201       .  S
N799        C800   1.354       .  A
C800        C847   1.501       .  S
C801        C840   1.501       .  S
N802        N808   1.315       .  A
N802        N803   1.320       .  A
N802       Mn832   2.200       .  S
N803        C811   1.354       .  A
N804        N805   1.320       .  A
N804        N806   1.315       .  A
N804       Mn810   2.201       .  S
N805        C812   1.354       .  A
N806        N807   1.320       .  A
N806       Mn832   2.200       .  S
N807        C812   1.354       .  A
N808        N809   1.320       .  A
N808       Mn810   2.201       .  S
N809        C811   1.354       .  A
Mn810      Cl834   2.545       .  S
C811        C838   1.501       .  S
C812        C854   1.501       .  S
N813        N814   1.320       .  A
N813        N819   1.315       .  A
N813       Mn821   2.201       .  S
N814        C822   1.354       .  A
N815        N817   1.315       .  A
N815        N816   1.320       .  A
N815       Mn833   2.199       .  S
N816        C823   1.354       .  A
N817        N818   1.320       .  A
N817       Mn821   2.201       .  S
N818        C823   1.354       .  A
N819        N820   1.320       .  A
N819       Mn833   2.199       .  S
N820        C822   1.354       .  A
Mn821      Cl834   2.544       .  S
C822        C839   1.501       .  S
C823        C844   1.501       .  S
N824        N825   1.320       .  A
N824        N830   1.315       .  A
N824       Mn832   2.201       .  S
N825        C835   1.354       .  A
N826        N827   1.320       .  A
N826        N828   1.315       .  A
N826       Mn833   2.199       .  S
N827        C836   1.354       .  A
N828        N829   1.320       .  A
N828       Mn832   2.201       .  S
N829        C836   1.354       .  A
N830        N831   1.320       .  A
N830       Mn833   2.199       .  S
N831        C835   1.354       .  A
Mn832      Cl834   2.544       .  S
Mn833      Cl834   2.545       .  S
C835        C843   1.501       .  S
C836        C837   1.501       .  S
C837        C900   1.470       .  S
C837        C902   1.470       .  S
C837        C903   1.466       .  S
C838        C894   1.473       .  S
C838        C896   1.464       .  S
C838        C897   1.470       .  S
C839        C887   1.470       .  S
C839        C890   1.466       .  S
C839        C892   1.470       .  S
C840        C882   1.464       .  S
C840        C884   1.473       .  S
C840        C885   1.470       .  S
C841        C881   1.442       .  S
C842        C895   1.442       .  S
C843        C876   1.470       .  S
C843        C877   1.470       .  S
C843        C879   1.466       .  S
C844        C869   1.470       .  S
C844        C871   1.470       .  S
C844        C874   1.466       .  S
C845        C901   1.446       .  S
C846        C875   1.446       .  S
C847        C864   1.470       .  S
C847        C865   1.473       .  S
C847        C868   1.464       .  S
C848        C861   1.442       .  S
C849        C867   1.442       .  S
C850        C872   1.446       .  S
C851        C866   1.448       .  S
C852        C859   1.447       .  S
C853        C863   1.447       .  S
C854        C858   1.473       .  S
C854        C860   1.470       .  S
C854        C862   1.464       .  S
C855        C878   1.446       .  S
C856        C857   1.448       .  S
C857        C858   1.208       .  T
C859        C860   1.207       .  T
C861        C862   1.204       .  T
C863        C864   1.207       .  T
C865        C866   1.208       .  T
C867        C868   1.204       .  T
C869        C870   1.207       .  T
C871        C872   1.207       .  T
C873        C874   1.205       .  T
C875        C876   1.207       .  T
C877        C878   1.207       .  T
C879        C880   1.205       .  T
C881        C882   1.204       .  T
C883        C884   1.208       .  T
C885        C886   1.207       .  T
C887        C888   1.207       .  T
C889        C890   1.205       .  T
C891        C892   1.207       .  T
C893        C894   1.208       .  T
C895        C896   1.204       .  T
C897        C898   1.207       .  T
C899        C900   1.207       .  T
C901        C902   1.207       .  T
C903        C904   1.205       .  T
