geometry optimzed in LAMMPS
_audit_creation_date              2020-11-30 
_audit_creation_method            'lammps2cif' 
_symmetry_space_group_name_H-M    'P1' 
_symmetry_Int_Tables_number       1 
_symmetry_cell_setting            triclinic 
loop_ 
_symmetry_equiv_pos_as_xyz 
  x,y,z 
_cell_length_a                    42.490195721090075 
_cell_length_b                    42.0880776498263 
_cell_length_c                    42.04663126440355 
_cell_angle_alpha                 89.82275786477594 
_cell_angle_beta                  90.20282100889932 
_cell_angle_gamma                 89.99545642267643 
loop_ 
_atom_site_label 
_atom_site_type_symbol 
_atom_site_fract_x 
_atom_site_fract_y 
_atom_site_fract_z 
_atom_site_charge 
C1          C  0.36800101  0.36683517  0.01460608     0.03530
C2          C  0.37518919  0.33392565  0.01867785    -0.12620
C3          C  0.35396004  0.31134030  0.00687382     0.01030
C4          C  0.32816413  0.32290399  0.49011452    -0.11200
C5          C  0.31506986  0.35219198  0.49760188     0.03530
C6          C  0.33606965  0.37564445  0.50817198    -0.10560
H7          H  0.39737799  0.32632143  0.02889938     0.09120
H8          H  0.31478393  0.30674446  0.47643725     0.06650
H9          H  0.32809024  0.39997677  0.50995328     0.06500
C10         C  0.36840752  0.22436341  0.99119316     0.03530
C11         C  0.37703079  0.25589106  0.00014023    -0.12620
C12         C  0.35417241  0.27618475  0.01263702     0.01030
C13         C  0.32504384  0.26250883  0.02013645    -0.11140
C14         C  0.31356258  0.23767306  0.00147930     0.03530
C15         C  0.33577851  0.21804968  0.98672299    -0.10560
H16         H  0.40074249  0.26481289  0.99802565     0.09120
H17         H  0.30919773  0.27517530  0.03514495     0.06650
H18         H  0.32784448  0.19770643  0.97322327     0.06500
C19         C  0.22503961  0.22432932  0.00816429     0.03530
C20         C  0.25783039  0.21742651  0.00931847    -0.12620
C21         C  0.27915450  0.23760645  0.99402341     0.01030
C22         C  0.26670269  0.26422117  0.97843581    -0.11140
C23         C  0.23886172  0.27785978  0.98978696     0.03530
C24         C  0.21705292  0.25712626  0.00381030    -0.10560
H25         H  0.26726229  0.19786030  0.02283024     0.09120
H26         H  0.28087269  0.27731417  0.96201593     0.06650
H27         H  0.19489425  0.26681085  0.01170807     0.06500
C28         C  0.22708144  0.36845286  0.98093929     0.03530
C29         C  0.25996042  0.37534480  0.98437424    -0.12620
C30         C  0.27969986  0.35295151  0.99908197     0.01030
C31         C  0.26530333  0.32541531  0.01062756    -0.11140
C32         C  0.23917958  0.31317687  0.99492891     0.03530
C33         C  0.21888536  0.33533087  0.98066418    -0.10560
H34         H  0.27059190  0.39657093  0.97504688     0.09120
H35         H  0.27819517  0.31021163  0.02612465     0.06650
H36         H  0.19752698  0.32657054  0.96987565     0.06500
C37         C  0.36670980  0.02888179  0.32176657     0.03530
C38         C  0.33385745  0.02590520  0.32903536    -0.12620
C39         C  0.31163498  0.03856171  0.30761450     0.01030
C40         C  0.32371489  0.05425709  0.28126751    -0.11140
C41         C  0.35208902  0.04513830  0.26785553     0.03530
C42         C  0.37518533  0.03437089  0.28916540    -0.10560
H43         H  0.32601574  0.01566330  0.35126902     0.09120
H44         H  0.30847150  0.06879870  0.26781394     0.06650
H45         H  0.39900481  0.03197467  0.28065144     0.06500
C46         C  0.22477393  0.05486422  0.32312381     0.03530
C47         C  0.25617237  0.04593977  0.33151557    -0.12620
C48         C  0.27632667  0.03473386  0.30765570     0.01030
C49         C  0.26247891  0.02907703  0.27784735    -0.11140
C50         C  0.23776781  0.04830104  0.26722932     0.03530
C51         C  0.21786505  0.06081439  0.29049303    -0.10560
H52         H  0.26456004  0.04693018  0.35580822     0.09120
H53         H  0.27482545  0.01498597  0.26100891     0.06650
H54         H  0.19672919  0.07342162  0.28345825     0.06500
C55         C  0.22493223  0.04511041  0.17799368     0.03530
C56         C  0.21627726  0.04625246  0.21057207    -0.12620
C57         C  0.23787475  0.05786925  0.23286402     0.01030
C58         C  0.26559639  0.07137769  0.22091279    -0.11140
C59         C  0.27838978  0.06040220  0.19227595     0.03530
C60         C  0.25730604  0.04770656  0.16999603    -0.10560
H61         H  0.19312842  0.03902533  0.21844023     0.09120
H62         H  0.27925972  0.08682808  0.23562258     0.06650
H63         H  0.26559501  0.04092595  0.14664933     0.06500
C64         C  0.36816582  0.06517298  0.17981476     0.03530
C65         C  0.37586731  0.05779070  0.21234652    -0.12620
C66         C  0.35273595  0.04446159  0.23199159     0.01030
C67         C  0.32468920  0.03562283  0.21701337    -0.11140
C68         C  0.31309132  0.05400129  0.19205510     0.03530
C69         C  0.33543902  0.06925756  0.17282867    -0.10560
H70         H  0.39880251  0.06180122  0.22256765     0.09120
H71         H  0.30915589  0.01981741  0.22891909     0.06650
H72         H  0.32740210  0.08345943  0.15298231     0.06500
C73         C  0.03427972  0.22472856  0.32362798     0.03530
C74         C  0.03514395  0.25751895  0.33185440    -0.12620
C75         C  0.04665294  0.27931978  0.30936081     0.01030
C76         C  0.05962212  0.26646838  0.28175033    -0.11140
C77         C  0.04842464  0.23787444  0.26929223     0.03530
C78         C  0.03701185  0.21564988  0.29121396    -0.10560
H79         H  0.02845112  0.26543606  0.35535379     0.09120
H80         H  0.07415319  0.28104775  0.26741269     0.06650
H81         H  0.03158125  0.19167137  0.28371117     0.06500
C82         C  0.05520771  0.36920734  0.32052850     0.03530
C83         C  0.05289472  0.33689336  0.33025203    -0.12620
C84         C  0.04090601  0.31462828  0.30864932     0.01030
C85         C  0.02861761  0.32682336  0.28022972    -0.11140
C86         C  0.04100632  0.35441744  0.26655331     0.03530
C87         C  0.05336709  0.37704848  0.28762239    -0.10560
H88         H  0.05915269  0.32969956  0.35420008     0.09120
H89         H  0.01333092  0.31241951  0.26650120     0.06650
H90         H  0.05967807  0.40050827  0.27914903     0.06500
C91         C  0.05600306  0.22234984  0.17963233     0.03530
C92         C  0.05561227  0.21477771  0.21269048    -0.12620
C93         C  0.04332642  0.23710664  0.23393875     0.01030
C94         C  0.02971704  0.26419378  0.22051697    -0.11140
C95         C  0.04096969  0.27668424  0.19196248     0.03530
C96         C  0.05290280  0.25473458  0.17003789    -0.10560
H97         H  0.06309142  0.19166000  0.22119868     0.09120
H98         H  0.01454254  0.27823062  0.23459667     0.06650
H99         H  0.05818539  0.26223321  0.14599156     0.06500
C100        C  0.02844223  0.36564562  0.17692284     0.03530
C101        C  0.03165181  0.37515388  0.20921320    -0.12620
C102        C  0.04516027  0.35385185  0.23102737     0.01030
C103        C  0.05784181  0.32596898  0.21841301    -0.11140
C104        C  0.04502723  0.31218755  0.19104728     0.03530
C105        C  0.03150243  0.33301510  0.16881694    -0.10560
H106        H  0.02518504  0.39887600  0.21664852     0.09120
H107        H  0.07378025  0.31247296  0.23243158     0.06650
H108        H  0.02491323  0.32457588  0.14542175     0.06500
O109        O  0.45565004  0.49363940  0.00428125    -0.79730
O110        O  0.13546185  0.49279443  0.99781832    -0.81280
O111        O  0.04711877  0.45465532  0.44766811    -0.78300
O112        O  0.04434411  0.45337437  0.05141050    -0.76680
O113        O  0.04278329  0.49125645  0.09047365    -0.78480
O114        O  0.05065994  0.49347662  0.40943605    -0.79410
O115        O  0.09753937  0.45449305  0.99794798    -0.80730
O116        O  0.49349141  0.45509306  0.00260824    -0.81020
Eu117      Eu  0.04573591  0.48062142  0.99992962     2.39200
O118        O  0.07817979  0.01197921  0.03284629    -0.88530
O119        O  0.01379911  0.01307782  0.46766793    -0.92140
C120        C  0.46456701  0.46435696  0.00508684     1.02550
C121        C  0.12656492  0.46345276  0.99675646     1.02370
C122        C  0.05008400  0.46417937  0.41862935     1.02320
C123        C  0.04268837  0.46215419  0.08069746     1.00170
H124        H  0.09133140  0.00064334  0.45480236     0.29920
O125        O  0.07789605  0.01330421  0.46817815    -1.00920
H126        H  0.00139269  0.99971844  0.04620430     0.29960
O127        O  0.01426972  0.01281916  0.03253085    -1.03460
O128        O  0.13516843  0.09761263  0.00231987    -0.80690
O129        O  0.45661429  0.09766949  0.99742236    -0.80230
O130        O  0.09853025  0.05076808  0.41084245    -0.78660
O131        O  0.09783923  0.04216929  0.09163601    -0.82000
O132        O  0.49503853  0.04987567  0.09093987    -0.79860
O133        O  0.49456835  0.04102112  0.40948579    -0.78510
O134        O  0.04229944  0.13596550  0.44872874    -0.80030
O135        O  0.04914984  0.13509980  0.05338122    -0.81950
O136        O  0.04230320  0.09780561  0.40988798    -0.78690
O137        O  0.04954573  0.09612895  0.09156554    -0.81370
O138        O  0.13645109  0.04904913  0.44944968    -0.77100
O139        O  0.45665458  0.04074520  0.44785970    -0.77130
O140        O  0.45668130  0.04955776  0.05294396    -0.76780
O141        O  0.13558468  0.04249183  0.05295668    -0.80270
O142        O  0.09710474  0.13575214  0.00119990    -0.79700
O143        O  0.49475611  0.13565943  0.00001853    -0.78030
Eu144      Eu  0.10976162  0.04503412  0.00078442     2.39770
Eu145      Eu  0.48209372  0.04522755  0.00046412     2.39570
Eu146      Eu  0.04623781  0.04551548  0.43574265     2.38400
Eu147      Eu  0.04630333  0.04426804  0.06512832     2.39880
Eu148      Eu  0.04595427  0.10928968  0.00088998     2.39790
O149        O  0.01408571  0.07710392  0.03321272    -0.92440
O150        O  0.07807838  0.07773667  0.46831428    -0.91330
C151        C  0.12611545  0.12694173  0.00203341     1.02730
C152        C  0.46579681  0.12694647  0.99777640     1.01450
C153        C  0.12756212  0.05156310  0.42021112     1.00840
C154        C  0.12672223  0.04149143  0.08226936     1.02850
C155        C  0.46596507  0.05116136  0.08223028     1.01770
C156        C  0.46560220  0.03926274  0.41852717     1.00610
C157        C  0.04087596  0.12687710  0.41944854     1.00670
C158        C  0.05071381  0.12545657  0.08255658     1.03290
H159        H  0.00072675  0.08990223  0.45500219     0.30660
O160        O  0.01420289  0.07706852  0.46832779    -1.04600
H161        H  0.09144555  0.08958188  0.04636737     0.32710
O162        O  0.07799374  0.07673970  0.03306165    -1.07170
C163        C  0.06013868  0.39565925  0.13907153    -0.11860
C164        C  0.03011791  0.38988833  0.15161999     0.05140
C165        C  0.00394352  0.40716560  0.13999241    -0.07150
C166        C  0.00916373  0.43082752  0.11681551    -0.07890
C167        C  0.03936034  0.43684876  0.10464818    -0.02450
C168        C  0.06522516  0.41844690  0.11527899     0.04370
N169        N  0.09663239  0.42250429  0.10285427     0.66880
H170        H  0.07988086  0.38181925  0.14786075     0.15780
H171        H  0.48948592  0.44472847  0.10799643     0.15490
N172        N  0.47224231  0.40074361  0.15046724     0.74580
O173        O  0.12019243  0.41380805  0.11908820    -0.38870
O174        O  0.10115713  0.43306904  0.07513067    -0.38810
O175        O  0.46697260  0.38664133  0.17643926    -0.39520
O176        O  0.44908304  0.40937327  0.13362677    -0.39580
C177        C  0.07648826  0.19816818  0.12964347    -0.11860
C178        C  0.05586019  0.19665451  0.15556788     0.05140
C179        C  0.03396720  0.17127137  0.15746192    -0.07150
C180        C  0.03384633  0.14783230  0.13390469    -0.07890
C181        C  0.05401248  0.14965499  0.10771965    -0.02450
C182        C  0.07607067  0.17482124  0.10578462     0.04370
N183        N  0.09905733  0.17623822  0.08079973     0.66880
H184        H  0.09346879  0.21732739  0.12835400     0.15780
H185        H  0.01664961  0.12883763  0.13515810     0.15490
N186        N  0.01031498  0.16996755  0.18181427     0.74580
O187        O  0.10951333  0.20275174  0.07150099    -0.38870
O188        O  0.11247811  0.15118196  0.07154608    -0.38810
O189        O  0.49389406  0.19420443  0.18783076    -0.39520
O190        O  0.00236843  0.14353883  0.19358873    -0.39580
C191        C  0.02474139  0.42720879  0.38165411    -0.11860
C192        C  0.05269372  0.43962456  0.39400112     0.05140
C193        C  0.08204436  0.42913823  0.38196366    -0.07150
C194        C  0.08229606  0.40661386  0.35724087    -0.07890
C195        C  0.05419625  0.39450715  0.34467739    -0.02450
C196        C  0.02495444  0.40504300  0.35689268     0.04370
N197        N  0.49531992  0.39350954  0.34473511     0.66880
H198        H  0.50245109  0.43539227  0.39105169     0.15780
H199        H  0.10449142  0.39789111  0.34814346     0.15490
N200        N  0.11154280  0.44049245  0.39465090     0.74580
O201        O  0.47165077  0.39198521  0.36275393    -0.38870
O202        O  0.49146942  0.38887067  0.31534435    -0.38810
O203        O  0.11371743  0.44945335  0.42317668    -0.39520
O204        O  0.13631111  0.43878814  0.37823594    -0.39580
C205        C  0.00905107  0.19337359  0.36690277    -0.11860
C206        C  0.03571283  0.20007919  0.34859682     0.05140
C207        C  0.06369933  0.18239949  0.35345997    -0.07150
C208        C  0.06414254  0.15825217  0.37640379    -0.07890
C209        C  0.03765616  0.15158011  0.39486442    -0.02450
C210        C  0.00935420  0.16884776  0.38980630     0.04370
N211        N  0.48066756  0.16122664  0.40649348     0.66880
H212        H  0.48766452  0.20672351  0.36251076     0.15780
H213        H  0.08567914  0.14501632  0.38053225     0.15490
N214        N  0.09201511  0.18899564  0.33587712     0.74580
O215        O  0.45819248  0.18085809  0.40695282    -0.38870
O216        O  0.47608036  0.13370830  0.41753333    -0.38810
O217        O  0.10011209  0.21727344  0.33005340    -0.39520
O218        O  0.11097308  0.16680503  0.32955698    -0.39580
C219        C  0.42522249  0.06349737  0.16243130    -0.11860
C220        C  0.39305126  0.06514834  0.15387992     0.05140
C221        C  0.38576848  0.06200392  0.12080009    -0.07150
C222        C  0.40988921  0.05862044  0.09838202    -0.07890
C223        C  0.44152428  0.05539338  0.10742863    -0.02450
C224        C  0.44894021  0.05699814  0.14024067     0.04370
N225        N  0.47988260  0.04985938  0.15202721     0.66880
H226        H  0.43264196  0.06529252  0.18685399     0.15780
H227        H  0.40333415  0.05684964  0.07351908     0.15490
N228        N  0.35422763  0.05950589  0.10908011     0.74580
O229        O  0.49279149  0.06814575  0.17191385    -0.38870
O230        O  0.99104050  0.02233409  0.14813373    -0.38810
O231        O  0.34425539  0.07957352  0.08906798    -0.39520
O232        O  0.33935457  0.03380635  0.11281589    -0.39580
C233        C  0.17802124  0.06008072  0.10224588    -0.11860
C234        C  0.15181653  0.04037113  0.10669198     0.05140
C235        C  0.14983604  0.02154296  0.13464499    -0.07150
C236        C  0.17450645  0.02266586  0.15695090    -0.07890
C237        C  0.20046736  0.04287899  0.15275111    -0.02450
C238        C  0.20168651  0.06247673  0.12531156     0.04370
N239        N  0.22524907  0.08669388  0.12157202     0.66880
H240        H  0.17908319  0.07538965  0.08148392     0.15780
H241        H  0.17345586  0.00742925  0.17771707     0.15490
N242        N  0.12356397  0.50084376  0.14065204     0.74580
O243        O  0.23685465  0.09212309  0.09449870    -0.38870
O244        O  0.23052649  0.10604732  0.14385158    -0.38810
O245        O  0.11037376  0.48625495  0.11813048    -0.39520
O246        O  0.11549713  0.49452035  0.16884798    -0.39580
C247        C  0.20583506  0.06711756  0.37820230    -0.11860
C248        C  0.19925931  0.05599280  0.34743479     0.05140
C249        C  0.16859509  0.04419758  0.34082187    -0.07150
C250        C  0.14555287  0.04463208  0.36453115    -0.07890
C251        C  0.15233407  0.05496525  0.39547152    -0.02450
C252        C  0.18297547  0.06656823  0.40223079     0.04370
N253        N  0.19122711  0.07861711  0.43300444     0.66880
H254        H  0.22884558  0.07674185  0.38367941     0.15780
H255        H  0.12254609  0.03490228  0.35909280     0.15490
N256        N  0.16087441  0.02943365  0.31106064     0.74580
O257        O  0.21684639  0.07041996  0.44593781    -0.38870
O258        O  0.17559176  0.10112200  0.44484703    -0.38810
O259        O  0.17703787  0.00631721  0.30121664    -0.39520
O260        O  0.13510233  0.03583416  0.29744124    -0.39580
C261        C  0.40940573  0.04285324  0.40130112    -0.11860
C262        C  0.44063996  0.03517077  0.39373870     0.05140
C263        C  0.44715427  0.02443158  0.36259371    -0.07150
C264        C  0.42261697  0.02061170  0.34052552    -0.07890
C265        C  0.39137732  0.02926868  0.34761209    -0.02450
C266        C  0.38516924  0.04130841  0.37859017     0.04370
N267        N  0.35529090  0.05471052  0.38692101     0.66880
H268        H  0.40394431  0.05216965  0.42463786     0.15780
H269        H  0.42853506  0.01099479  0.31750691     0.15490
N270        N  0.47858554  0.01780464  0.35252348     0.74580
O271        O  0.34238717  0.04690781  0.41279516    -0.38870
O272        O  0.34495162  0.07849409  0.37178586    -0.38810
O273        O  0.99231085  0.99292159  0.36196464    -0.39520
O274        O  0.49114573  0.03476535  0.33125863    -0.39580
C275        C  0.16958622  0.38475647  0.48224321    -0.11860
C276        C  0.20164638  0.39406048  0.98153109     0.05140
C277        C  0.20784511  0.42706339  0.98634141    -0.07150
C278        C  0.18313190  0.44853114  0.99119870    -0.07890
C279        C  0.15160049  0.43878272  0.99263195    -0.02450
C280        C  0.14500407  0.40616457  0.48825363     0.04370
N281        N  0.11368727  0.39376744  0.99082080     0.66880
H282        H  0.16273195  0.36025779  0.47990453     0.15780
H283        H  0.18911147  0.47333550  0.99450156     0.15490
N284        N  0.23889542  0.43986763  0.48779549     0.74580
O285        O  0.10245945  0.37719468  0.46853419    -0.38870
O286        O  0.10026878  0.39343518  0.01755580    -0.38810
O287        O  0.24945927  0.45511526  0.46424582    -0.39520
O288        O  0.25235683  0.44254449  0.01446654    -0.39580
C289        C  0.16819616  0.20725245  0.00334609    -0.11860
C290        C  0.19988272  0.19861417  0.00930014     0.05140
C291        C  0.20641396  0.16533974  0.51152412    -0.07150
C292        C  0.18192999  0.14314043  0.51014209    -0.07890
C293        C  0.15081035  0.15208923  0.00366036    -0.02450
C294        C  0.14416961  0.18475777  0.99940635     0.04370
N295        N  0.11385012  0.19568310  0.98884918     0.66880
H296        H  0.16165720  0.23162812  0.99909316     0.15780
H297        H  0.18788267  0.11822144  0.51271902     0.15490
N298        N  0.23759371  0.15267387  0.51216862     0.74580
O299        O  0.10134309  0.21948787  0.00192346    -0.38870
O300        O  0.10289949  0.18600628  0.46265425    -0.38810
O301        O  0.24676505  0.13711505  0.03617817    -0.39520
O302        O  0.25261046  0.15024164  0.48642954    -0.39580
C303        C  0.40960593  0.14360960  0.49831394    -0.11860
C304        C  0.44130860  0.15210356  0.99475790     0.05140
C305        C  0.44861077  0.18418324  0.98771605    -0.07150
C306        C  0.42433289  0.20627343  0.98326135    -0.07890
C307        C  0.39261919  0.19841232  0.98909163    -0.02450
C308        C  0.38553468  0.16626048  0.49696927     0.04370
N309        N  0.35468549  0.15625273  0.50634530     0.66880
H310        H  0.40339672  0.11934505  0.50428197     0.15780
H311        H  0.43095924  0.23015595  0.97663135     0.15490
N312        N  0.48042613  0.19542658  0.98697918     0.74580
O313        O  0.34198987  0.13279686  0.49274363    -0.38870
O314        O  0.34308833  0.16645008  0.03196141    -0.38810
O315        O  0.99118379  0.20775805  0.46188806    -0.39520
O316        O  0.49497181  0.19956801  0.01287266    -0.39580
C317        C  0.38817512  0.42148574  0.02657230    -0.11860
C318        C  0.39361463  0.39110894  0.01400016     0.05140
C319        C  0.42285867  0.38508587  0.49886619    -0.07150
C320        C  0.44576631  0.40897461  0.49753496    -0.07890
C321        C  0.44002682  0.43951823  0.00939227    -0.02450
C322        C  0.41078735  0.44568982  0.02432370     0.04370
N323        N  0.40381942  0.47600475  0.03809957     0.66880
H324        H  0.36626978  0.42649656  0.03864542     0.15780
H325        H  0.46770149  0.40402079  0.48544051     0.15490
N326        N  0.42902843  0.35581321  0.48258667     0.74580
O327        O  0.37758860  0.48909168  0.03271295    -0.38870
O328        O  0.42160466  0.98726194  0.05934887    -0.38810
O329        O  0.41056767  0.34648415  0.46095368    -0.39520
O330        O  0.45536198  0.34227983  0.98590399    -0.39580
C331        C  0.36800108  0.36683513  0.51460606     0.03530
C332        C  0.37518928  0.33392560  0.51867775    -0.12620
C333        C  0.35396006  0.31134028  0.50687380     0.01030
C334        C  0.32816419  0.32290399  0.99011437    -0.11200
C335        C  0.31506988  0.35219200  0.99760162     0.03530
C336        C  0.33606961  0.37564447  0.00817183    -0.10560
H337        H  0.39737812  0.32632138  0.52889916     0.09120
H338        H  0.31478405  0.30674442  0.97643708     0.06650
H339        H  0.32809020  0.39997679  0.00995309     0.06500
C340        C  0.36840746  0.22436340  0.49119294     0.03530
C341        C  0.37703078  0.25589101  0.50014005    -0.12620
C342        C  0.35417244  0.27618470  0.51263693     0.01030
C343        C  0.32504387  0.26250878  0.52013637    -0.11140
C344        C  0.31356256  0.23767307  0.50147917     0.03530
C345        C  0.33577845  0.21804969  0.48672281    -0.10560
H346        H  0.40074251  0.26481280  0.49802548     0.09120
H347        H  0.30919778  0.27517525  0.53514490     0.06650
H348        H  0.32784439  0.19770642  0.47322312     0.06500
C349        C  0.22503961  0.22432934  0.50816423     0.03530
C350        C  0.25783039  0.21742655  0.50931839    -0.12620
C351        C  0.27915448  0.23760649  0.49402332     0.01030
C352        C  0.26670266  0.26422122  0.47843574    -0.11140
C353        C  0.23886168  0.27785982  0.48978690     0.03530
C354        C  0.21705290  0.25712628  0.50381024    -0.10560
H355        H  0.26726231  0.19786035  0.52283016     0.09120
H356        H  0.28087265  0.27731423  0.46201585     0.06650
H357        H  0.19489423  0.26681085  0.51170803     0.06500
C358        C  0.22708146  0.36845296  0.48093947     0.03530
C359        C  0.25996043  0.37534491  0.48437463    -0.12620
C360        C  0.27969984  0.35295152  0.49908226     0.01030
C361        C  0.26530328  0.32541528  0.51062770    -0.11140
C362        C  0.23917956  0.31317690  0.49492893     0.03530
C363        C  0.21888540  0.33533096  0.48066419    -0.10560
H364        H  0.27059197  0.39657108  0.47504746     0.09120
H365        H  0.27819508  0.31021152  0.52612474     0.06650
H366        H  0.19752707  0.32657069  0.46987552     0.06500
C367        C  0.36670999  0.02888284  0.82176665     0.03530
C368        C  0.33385766  0.02590622  0.82903542    -0.12620
C369        C  0.31163518  0.03856278  0.80761462     0.01030
C370        C  0.32371504  0.05425819  0.78126759    -0.11140
C371        C  0.35208922  0.04513949  0.76785565     0.03530
C372        C  0.37518552  0.03437203  0.78916551    -0.10560
H373        H  0.32601594  0.01566417  0.85126902     0.09120
H374        H  0.30847159  0.06879970  0.76781398     0.06650
H375        H  0.39900498  0.03197576  0.78065153     0.06500
C376        C  0.22477394  0.05486453  0.82312367     0.03530
C377        C  0.25617248  0.04594056  0.83151555    -0.12620
C378        C  0.27632693  0.03473460  0.80765583     0.01030
C379        C  0.26247928  0.02907723  0.77784756    -0.11140
C380        C  0.23776789  0.04830072  0.76722929     0.03530
C381        C  0.21786500  0.06081418  0.79049282    -0.10560
H382        H  0.26456014  0.04693137  0.85580819     0.09120
H383        H  0.27482601  0.01498616  0.76100928     0.06650
H384        H  0.19672901  0.07342109  0.78345785     0.06500
C385        C  0.22493222  0.04510884  0.67799375     0.03530
C386        C  0.21627722  0.04625129  0.71057211    -0.12620
C387        C  0.23787472  0.05786842  0.73286388     0.01030
C388        C  0.26559633  0.07137666  0.72091245    -0.11140
C389        C  0.27838975  0.06040067  0.69227586     0.03530
C390        C  0.25730604  0.04770474  0.66999608    -0.10560
H391        H  0.19312836  0.03902434  0.71844035     0.09120
H392        H  0.27925960  0.08682737  0.73562194     0.06650
H393        H  0.26559500  0.04092391  0.64664944     0.06500
C394        C  0.36816555  0.06517311  0.67981451     0.03530
C395        C  0.37586711  0.05779189  0.71234649    -0.12620
C396        C  0.35273615  0.04446227  0.73199174     0.01030
C397        C  0.32468964  0.03562249  0.71701366    -0.11140
C398        C  0.31309134  0.05400018  0.69205501     0.03530
C399        C  0.33543866  0.06925668  0.67282835    -0.10560
H400        H  0.39880198  0.06180394  0.72256776     0.09120
H401        H  0.30915674  0.01981688  0.72891968     0.06650
H402        H  0.32740128  0.08345840  0.65298210     0.06500
C403        C  0.03427972  0.22472873  0.82362793     0.03530
C404        C  0.03514371  0.25751913  0.83185435    -0.12620
C405        C  0.04665268  0.27932004  0.80936081     0.01030
C406        C  0.05962208  0.26646873  0.78175038    -0.11140
C407        C  0.04842486  0.23787469  0.76929227     0.03530
C408        C  0.03701208  0.21565007  0.79121393    -0.10560
H409        H  0.02845070  0.26543620  0.85535369     0.09120
H410        H  0.07415310  0.28104822  0.76741279     0.06650
H411        H  0.03158164  0.19167154  0.78371111     0.06500
C412        C  0.05520709  0.36920761  0.82052831     0.03530
C413        C  0.05289429  0.33689364  0.83025188    -0.12620
C414        C  0.04090548  0.31462849  0.80864930     0.01030
C415        C  0.02861681  0.32682346  0.78022977    -0.11140
C416        C  0.04100528  0.35441762  0.76655325     0.03530
C417        C  0.05336615  0.37704872  0.78762221    -0.10560
H418        H  0.05915251  0.32969989  0.85419988     0.09120
H419        H  0.01333012  0.31241949  0.76650135     0.06650
H420        H  0.05967700  0.40050851  0.77914877     0.06500
C421        C  0.05600328  0.22235007  0.67963237     0.03530
C422        C  0.05561268  0.21477799  0.71269053    -0.12620
C423        C  0.04332668  0.23710684  0.73393879     0.01030
C424        C  0.02971701  0.26419382  0.72051703    -0.11140
C425        C  0.04096943  0.27668434  0.69196247     0.03530
C426        C  0.05290267  0.25473475  0.67003787    -0.10560
H427        H  0.06309205  0.19166037  0.72119875     0.09120
H428        H  0.01454251  0.27823060  0.73459680     0.06650
H429        H  0.05818509  0.26223339  0.64599150     0.06500
C430        C  0.02844105  0.36564557  0.67692272     0.03530
C431        C  0.03165047  0.37515389  0.70921309    -0.12620
C432        C  0.04515913  0.35385200  0.73102729     0.01030
C433        C  0.05784097  0.32596927  0.71841298    -0.11140
C434        C  0.04502659  0.31218769  0.69104723     0.03530
C435        C  0.03150159  0.33301507  0.66881686    -0.10560
H436        H  0.02518351  0.39887596  0.71664838     0.09120
H437        H  0.07377948  0.31247340  0.73243162     0.06650
H438        H  0.02491254  0.32457577  0.64542166     0.06500
O439        O  0.45564999  0.49363941  0.50428055    -0.79730
O440        O  0.13546169  0.49279442  0.49781839    -0.81280
O441        O  0.04711882  0.45465538  0.94766812    -0.78300
O442        O  0.04434375  0.45337432  0.55141044    -0.76680
O443        O  0.04278259  0.49125643  0.59047355    -0.78480
O444        O  0.05065995  0.49347674  0.90943612    -0.79410
O445        O  0.09753924  0.45449301  0.49794808    -0.80730
O446        O  0.49349138  0.45509309  0.50260767    -0.81020
Eu447      Eu  0.04573573  0.48062141  0.49992957     2.39200
O448        O  0.07817972  0.01197922  0.53284655    -0.88530
O449        O  0.01379911  0.01307783  0.96766773    -0.92140
C450        C  0.46456698  0.46435698  0.50508623     1.02550
C451        C  0.12656478  0.46345274  0.49675656     1.02370
C452        C  0.05008399  0.46417948  0.91862936     1.02320
C453        C  0.04268779  0.46215416  0.58069739     1.00170
H454        H  0.09133144  0.00064343  0.95480211     0.29920
O455        O  0.07789608  0.01330427  0.96817792    -1.00920
H456        H  0.00139258  0.99971853  0.54620447     0.29960
O457        O  0.01426965  0.01281922  0.53253102    -1.03460
O458        O  0.13516846  0.09761257  0.50232007    -0.80690
O459        O  0.45661415  0.09766948  0.49742223    -0.80230
O460        O  0.09853022  0.05076823  0.91084223    -0.78660
O461        O  0.09783911  0.04216914  0.59163624    -0.82000
O462        O  0.49503839  0.04987568  0.59093971    -0.79860
O463        O  0.49456844  0.04102136  0.90948596    -0.78510
O464        O  0.04229937  0.13596554  0.94872858    -0.80030
O465        O  0.04915000  0.13509983  0.55338141    -0.81950
O466        O  0.04230313  0.09780567  0.90988780    -0.78690
O467        O  0.04954583  0.09612899  0.59156574    -0.81370
O468        O  0.13645109  0.04904930  0.94944944    -0.77100
O469        O  0.45665469  0.04074519  0.94785989    -0.77130
O470        O  0.45668120  0.04955772  0.55294375    -0.76780
O471        O  0.13558457  0.04249158  0.55295693    -0.80270
O472        O  0.09710479  0.13575210  0.50120004    -0.79700
O473        O  0.49475603  0.13565934  0.50001827    -0.78030
Eu474      Eu  0.10976158  0.04503408  0.50078466     2.39770
Eu475      Eu  0.48209363  0.04522754  0.50046392     2.39570
Eu476      Eu  0.04623780  0.04551552  0.93574245     2.38400
Eu477      Eu  0.04630324  0.04426807  0.56512854     2.39880
Eu478      Eu  0.04595429  0.10928969  0.50089018     2.39790
O479        O  0.01408568  0.07710396  0.53321288    -0.92440
O480        O  0.07807838  0.07773671  0.96831407    -0.91330
C481        C  0.12611549  0.12694168  0.50203356     1.02730
C482        C  0.46579672  0.12694645  0.49777622     1.01450
C483        C  0.12756208  0.05156330  0.92021089     1.00840
C484        C  0.12672210  0.04149114  0.58226959     1.02850
C485        C  0.46596494  0.05116133  0.58223008     1.01770
C486        C  0.46560230  0.03926287  0.91852734     1.00610
C487        C  0.04087588  0.12687715  0.91944838     1.00670
C488        C  0.05071398  0.12545661  0.58255677     1.03290
H489        H  0.00072670  0.08990220  0.95500205     0.30660
O490        O  0.01420285  0.07706849  0.96832764    -1.04600
H491        H  0.09144555  0.08958185  0.54636759     0.32710
O492        O  0.07799372  0.07673969  0.53306187    -1.07170
C493        C  0.06013762  0.39565897  0.63907136    -0.11860
C494        C  0.03011682  0.38988826  0.65161984     0.05140
C495        C  0.00394255  0.40716574  0.63999229    -0.07150
C496        C  0.00916294  0.43082770  0.61681547    -0.07890
C497        C  0.03935959  0.43684872  0.60464810    -0.02450
C498        C  0.06522425  0.41844659  0.61527884     0.04370
N499        N  0.09663150  0.42250370  0.60285410     0.66880
H500        H  0.07987971  0.38181881  0.64786054     0.15780
H501        H  0.48948649  0.44472889  0.60799692     0.15490
N502        N  0.47224331  0.40074408  0.65046791     0.74580
O503        O  0.12019149  0.41380756  0.61908817    -0.38870
O504        O  0.10115631  0.43306816  0.57513041    -0.38810
O505        O  0.46697391  0.38664181  0.67644001    -0.39520
O506        O  0.44908385  0.40937378  0.63362775    -0.39580
C507        C  0.07648839  0.19816840  0.62964345    -0.11860
C508        C  0.05586047  0.19665466  0.65556798     0.05140
C509        C  0.03396767  0.17127137  0.65746221    -0.07150
C510        C  0.03384679  0.14783227  0.63390502    -0.07890
C511        C  0.05401275  0.14965505  0.60771984    -0.02450
C512        C  0.07607082  0.17482140  0.60578466     0.04370
N513        N  0.09905740  0.17623840  0.58079969     0.66880
H514        H  0.09346881  0.21732771  0.62835385     0.15780
H515        H  0.01665018  0.12883750  0.63515858     0.15490
N516        N  0.01031565  0.16996740  0.68181475     0.74580
O517        O  0.10951331  0.20275192  0.57150088    -0.38870
O518        O  0.11247824  0.15118216  0.57154608    -0.38810
O519        O  0.49389454  0.19420567  0.68783034    -0.39520
O520        O  0.00236948  0.14353865  0.69358939    -0.39580
C521        C  0.02474117  0.42720903  0.88165413    -0.11860
C522        C  0.05269358  0.43962472  0.89400106     0.05140
C523        C  0.08204415  0.42913839  0.88196342    -0.07150
C524        C  0.08229571  0.40661408  0.85724057    -0.07890
C525        C  0.05419582  0.39450744  0.84467719    -0.02450
C526        C  0.02495410  0.40504329  0.85689266     0.04370
N527        N  0.49531924  0.39350983  0.84473549     0.66880
H528        H  0.50245063  0.43539246  0.89105215     0.15780
H529        H  0.10449102  0.39789132  0.84814304     0.15490
N530        N  0.11154267  0.44049257  0.89465053     0.74580
O531        O  0.47164999  0.39198591  0.86275421    -0.38870
O532        O  0.49146884  0.38887055  0.81534477    -0.38810
O533        O  0.11371744  0.44945348  0.92317630    -0.39520
O534        O  0.13631090  0.43878824  0.87823545    -0.39580
C535        C  0.00905108  0.19337385  0.86690282    -0.11860
C536        C  0.03571280  0.20007935  0.84859676     0.05140
C537        C  0.06369922  0.18239949  0.85345977    -0.07150
C538        C  0.06414241  0.15825214  0.87640354    -0.07890
C539        C  0.03765607  0.15158019  0.89486428    -0.02450
C540        C  0.00935418  0.16884799  0.88980632     0.04370
N541        N  0.48066758  0.16122636  0.90649315     0.66880
H542        H  0.48766456  0.20672318  0.86251040     0.15780
H543        H  0.08567896  0.14501618  0.88053190     0.15490
N544        N  0.09201498  0.18899558  0.83587685     0.74580
O545        O  0.45819247  0.18085777  0.90695246    -0.38870
O546        O  0.47608045  0.13370802  0.91753303    -0.38810
O547        O  0.10011213  0.21727337  0.83005332    -0.39520
O548        O  0.11097277  0.16680488  0.82955648    -0.39580
C549        C  0.42522225  0.06349595  0.66243120    -0.11860
C550        C  0.39305109  0.06514838  0.65387969     0.05140
C551        C  0.38576847  0.06200518  0.62079968    -0.07150
C552        C  0.40988922  0.05862151  0.59838168    -0.07890
C553        C  0.44152414  0.05539332  0.60742838    -0.02450
C554        C  0.44893994  0.05699692  0.64024049     0.04370
N555        N  0.47988215  0.04985725  0.65202696     0.66880
H556        H  0.43264169  0.06528963  0.68685400     0.15780
H557        H  0.40333426  0.05685165  0.57351865     0.15490
N558        N  0.35422767  0.05950865  0.60907930     0.74580
O559        O  0.49279133  0.06814288  0.67191411    -0.38870
O560        O  0.99103935  0.02233162  0.64813272    -0.38810
O561        O  0.34425595  0.07957807  0.58906870    -0.39520
O562        O  0.33935424  0.03380899  0.61281273    -0.39580
C563        C  0.17802125  0.06007993  0.60224616    -0.11860
C564        C  0.15181639  0.04037055  0.60669221     0.05140
C565        C  0.14983580  0.02154223  0.63464512    -0.07150
C566        C  0.17450626  0.02266478  0.65695097    -0.07890
C567        C  0.20046734  0.04287769  0.65275121    -0.02450
C568        C  0.20168659  0.06247560  0.62531179     0.04370
N569        N  0.22524932  0.08669260  0.62157237     0.66880
H570        H  0.17908328  0.07538898  0.58148429     0.15780
H571        H  0.17345560  0.00742810  0.67771709     0.15490
N572        N  0.12356225  0.50084215  0.64065159     0.74580
O573        O  0.23685484  0.09212195  0.59449905    -0.38870
O574        O  0.23052693  0.10604584  0.64385206    -0.38810
O575        O  0.11037155  0.48625418  0.61812979    -0.39520
O576        O  0.11549534  0.49451840  0.66884742    -0.39580
C577        C  0.20583492  0.06711813  0.87820205    -0.11860
C578        C  0.19925928  0.05599310  0.84743462     0.05140
C579        C  0.16859516  0.04419759  0.84082175    -0.07150
C580        C  0.14555290  0.04463210  0.86453099    -0.07890
C581        C  0.15233401  0.05496551  0.89547130    -0.02450
C582        C  0.18297531  0.06656876  0.90223053     0.04370
N583        N  0.19122683  0.07861787  0.93300412     0.66880
H584        H  0.22884534  0.07674265  0.88367912     0.15780
H585        H  0.12254621  0.03490209  0.85909269     0.15490
N586        N  0.16087461  0.02943337  0.81106063     0.74580
O587        O  0.21684617  0.07042100  0.94593755    -0.38870
O588        O  0.17559125  0.10112265  0.94484661    -0.38810
O589        O  0.17703816  0.00631687  0.80121691    -0.39520
O590        O  0.13510256  0.03583370  0.79744109    -0.39580
C591        C  0.40940588  0.04285346  0.90130133    -0.11860
C592        C  0.44064009  0.03517099  0.89373886     0.05140
C593        C  0.44715441  0.02443203  0.86259377    -0.07150
C594        C  0.42261711  0.02061248  0.84052553    -0.07890
C595        C  0.39137749  0.02926947  0.84761217    -0.02450
C596        C  0.38516941  0.04130891  0.87859035     0.04370
N597        N  0.35529110  0.05471100  0.88692131     0.66880
H598        H  0.40394446  0.05216969  0.92463814     0.15780
H599        H  0.42853518  0.01099572  0.81750685     0.15490
N600        N  0.47858566  0.01780495  0.85252350     0.74580
O601        O  0.34238731  0.04690803  0.91279535    -0.38870
O602        O  0.34495188  0.07849475  0.87178639    -0.38810
O603        O  0.99231062  0.99292168  0.86196408    -0.39520
O604        O  0.49114518  0.03476431  0.83125716    -0.39580
C605        C  0.16958622  0.38475646  0.98224295    -0.11860
C606        C  0.20164637  0.39406055  0.48153122     0.05140
C607        C  0.20784503  0.42706350  0.48634137    -0.07150
C608        C  0.18313179  0.44853121  0.49119875    -0.07890
C609        C  0.15160039  0.43878273  0.49263207    -0.02450
C610        C  0.14500410  0.40616458  0.98825346     0.04370
N611        N  0.11368724  0.39376740  0.49082086     0.66880
H612        H  0.16273190  0.36025781  0.97990414     0.15780
H613        H  0.18911132  0.47333559  0.49450150     0.15490
N614        N  0.23889554  0.43986740  0.98779595     0.74580
O615        O  0.10245941  0.37719465  0.96853421    -0.38870
O616        O  0.10026869  0.39343504  0.51755583    -0.38810
O617        O  0.24945940  0.45511583  0.96424681    -0.39520
O618        O  0.25235670  0.44254567  0.51446599    -0.39580
C619        C  0.16819618  0.20725241  0.50334605    -0.11860
C620        C  0.19988274  0.19861416  0.50930012     0.05140
C621        C  0.20641392  0.16533974  0.01152408    -0.07150
C622        C  0.18192994  0.14314045  0.01014200    -0.07890
C623        C  0.15081039  0.15208918  0.50366045    -0.02450
C624        C  0.14416964  0.18475772  0.49940636     0.04370
N625        N  0.11385015  0.19568301  0.48884917     0.66880
H626        H  0.16165722  0.23162808  0.49909306     0.15780
H627        H  0.18788261  0.11822145  0.01271888     0.15490
N628        N  0.23759366  0.15267386  0.01216857     0.74580
O629        O  0.10134312  0.21948782  0.50192338    -0.38870
O630        O  0.10289946  0.18600643  0.96265424    -0.38810
O631        O  0.24676507  0.13711502  0.53617821    -0.39520
O632        O  0.25261040  0.15024160  0.98642948    -0.39580
C633        C  0.40960596  0.14360952  0.99831379    -0.11860
C634        C  0.44130855  0.15210360  0.49475779     0.05140
C635        C  0.44861069  0.18418326  0.48771560    -0.07150
C636        C  0.42433273  0.20627336  0.48326080    -0.07890
C637        C  0.39261909  0.19841229  0.48909138    -0.02450
C638        C  0.38553473  0.16626043  0.99696922     0.04370
N639        N  0.35468552  0.15625263  0.00634513     0.66880
H640        H  0.40339672  0.11934492  0.00428159     0.15780
H641        H  0.43095894  0.23015585  0.47663054     0.15490
N642        N  0.48042604  0.19542669  0.48697834     0.74580
O643        O  0.34198996  0.13279679  0.99274334    -0.38870
O644        O  0.34308834  0.16645032  0.53196155    -0.38810
O645        O  0.99118276  0.20776020  0.96188809    -0.39520
O646        O  0.49497278  0.19956583  0.51287159    -0.39580
C647        C  0.38817521  0.42148576  0.52657207    -0.11860
C648        C  0.39361470  0.39110891  0.51400000     0.05140
C649        C  0.42285864  0.38508591  0.99886643    -0.07150
C650        C  0.44576631  0.40897462  0.99753535    -0.07890
C651        C  0.44002681  0.43951826  0.50939179    -0.02450
C652        C  0.41078739  0.44568987  0.52432329     0.04370
N653        N  0.40381941  0.47600488  0.53809898     0.66880
H654        H  0.36626991  0.42649660  0.53864525     0.15780
H655        H  0.46770152  0.40402082  0.98544095     0.15490
N656        N  0.42902842  0.35581328  0.98258686     0.74580
O657        O  0.37758858  0.48909174  0.53271223    -0.38870
O658        O  0.42160466  0.98726195  0.55934875    -0.38810
O659        O  0.41056768  0.34648424  0.96095383    -0.39520
O660        O  0.45536201  0.34227979  0.48590377    -0.39580
C661        C  0.36799568  0.86683593  0.01460586     0.03530
C662        C  0.37518556  0.83392646  0.01867610    -0.12620
C663        C  0.35395770  0.81134049  0.00687063     0.01030
C664        C  0.32816020  0.82290417  0.49011334    -0.11200
C665        C  0.31506494  0.85219165  0.49760231     0.03530
C666        C  0.33606384  0.87564405  0.50817339    -0.10560
H667        H  0.39737492  0.82632293  0.02889686     0.09120
H668        H  0.31478005  0.80674481  0.47643588     0.06650
H669        H  0.32808347  0.89997596  0.50995579     0.06500
C670        C  0.36840802  0.72436011  0.99119494     0.03530
C671        C  0.37703049  0.75588945  0.00013861    -0.12620
C672        C  0.35417121  0.77618432  0.01263304     0.01030
C673        C  0.32504310  0.76250836  0.02013285    -0.11140
C674        C  0.31356235  0.73767226  0.00147638     0.03530
C675        C  0.33577888  0.71804616  0.98672408    -0.10560
H676        H  0.40074204  0.76481149  0.99802354     0.09120
H677        H  0.30919677  0.77517519  0.03514068     0.06650
H678        H  0.32784511  0.69770163  0.97322617     0.06500
C679        C  0.22504031  0.72433019  0.00816503     0.03530
C680        C  0.25783090  0.71742746  0.00931807    -0.12620
C681        C  0.27915419  0.73760595  0.99402044     0.01030
C682        C  0.26670153  0.76422066  0.97843272    -0.11140
C683        C  0.23886016  0.77785921  0.98978409     0.03530
C684        C  0.21705293  0.75712641  0.00380996    -0.10560
H685        H  0.26726334  0.69786251  0.02283133     0.09120
H686        H  0.28087084  0.77731332  0.96201187     0.06650
H687        H  0.19489484  0.76681123  0.01170916     0.06500
C688        C  0.22707478  0.86845270  0.98094429     0.03530
C689        C  0.25995385  0.87534578  0.98437943    -0.12620
C690        C  0.27969496  0.85295100  0.99908314     0.01030
C691        C  0.26529970  0.82541384  0.01062684    -0.11140
C692        C  0.23917686  0.81317586  0.99492711     0.03530
C693        C  0.21888042  0.83533027  0.98066603    -0.10560
H694        H  0.27058441  0.89657358  0.97505501     0.09120
H695        H  0.27819205  0.81020946  0.02612270     0.06650
H696        H  0.19752182  0.82657001  0.96987789     0.06500
C697        C  0.36671473  0.52888520  0.32177076     0.03530
C698        C  0.33386223  0.52590812  0.32903853    -0.12620
C699        C  0.31164016  0.53856312  0.30761640     0.01030
C700        C  0.32372052  0.55425820  0.28126949    -0.11140
C701        C  0.35209543  0.54514009  0.26785881     0.03530
C702        C  0.37519131  0.53437426  0.28916982    -0.10560
H703        H  0.32601998  0.51566633  0.35127204     0.09120
H704        H  0.30847705  0.56879869  0.26781488     0.06650
H705        H  0.39901111  0.53197878  0.28065661     0.06500
C706        C  0.22477874  0.55486496  0.32312254     0.03530
C707        C  0.25617679  0.54594021  0.33151555    -0.12620
C708        C  0.27633196  0.53473428  0.30765650     0.01030
C709        C  0.26248517  0.52907728  0.27784772    -0.11140
C710        C  0.23777487  0.54830176  0.26722864     0.03530
C711        C  0.21787113  0.56081507  0.29049151    -0.10560
H712        H  0.26456359  0.54693065  0.35580850     0.09120
H713        H  0.27483193  0.51498565  0.26100994     0.06650
H714        H  0.19673562  0.57342242  0.28345589     0.06500
C715        C  0.22494226  0.54510924  0.17799296     0.03530
C716        C  0.21628624  0.54625214  0.21057096    -0.12620
C717        C  0.23788291  0.55786971  0.23286330     0.01030
C718        C  0.26560479  0.57137823  0.22091258    -0.11140
C719        C  0.27839916  0.56040201  0.19227641     0.03530
C720        C  0.25731624  0.54770554  0.16999623    -0.10560
H721        H  0.19313721  0.53902499  0.21843851     0.09120
H722        H  0.27926746  0.58682941  0.23562226     0.06650
H723        H  0.26560597  0.54092448  0.14664994     0.06500
C724        C  0.36817555  0.56516982  0.17981747     0.03530
C725        C  0.37587589  0.55778940  0.21234995    -0.12620
C726        C  0.35274360  0.54446193  0.23199495     0.01030
C727        C  0.32469735  0.53562282  0.21701613    -0.11140
C728        C  0.31310054  0.55400049  0.19205689     0.03530
C729        C  0.33544910  0.56925481  0.17283007    -0.10560
H730        H  0.39881075  0.56180024  0.22257171     0.09120
H731        H  0.30916347  0.51981814  0.22892190     0.06650
H732        H  0.32741298  0.58345604  0.15298297     0.06500
C733        C  0.03427974  0.72472858  0.32362999     0.03530
C734        C  0.03514412  0.75751894  0.33185656    -0.12620
C735        C  0.04665278  0.77931987  0.30936285     0.01030
C736        C  0.05962182  0.76646867  0.28175222    -0.11140
C737        C  0.04842437  0.73787479  0.26929401     0.03530
C738        C  0.03701166  0.71565012  0.29121580    -0.10560
H739        H  0.02845157  0.76543595  0.35535606     0.09120
H740        H  0.07415240  0.78104834  0.26741434     0.06650
H741        H  0.03158101  0.69167165  0.28371293     0.06500
C742        C  0.05520701  0.86920714  0.32053130     0.03530
C743        C  0.05289418  0.83689314  0.33025453    -0.12620
C744        C  0.04090583  0.81462833  0.30865147     0.01030
C745        C  0.02861769  0.82682370  0.28023184    -0.11140
C746        C  0.04100615  0.85441818  0.26655589     0.03530
C747        C  0.05336667  0.87704886  0.28762537    -0.10560
H748        H  0.05915177  0.82969918  0.35420264     0.09120
H749        H  0.01333124  0.81241998  0.26650300     0.06650
H750        H  0.05967737  0.90050891  0.27915251     0.06500
C751        C  0.05600362  0.72235155  0.17963354     0.03530
C752        C  0.05561247  0.71477884  0.21269167    -0.12620
C753        C  0.04332625  0.73710731  0.23394036     0.01030
C754        C  0.02971697  0.76419469  0.22051891    -0.11140
C755        C  0.04096977  0.77668573  0.19196471     0.03530
C756        C  0.05290323  0.75473651  0.17003982    -0.10560
H757        H  0.06309181  0.69166108  0.22119953     0.09120
H758        H  0.01454202  0.77823106  0.23459861     0.06650
H759        H  0.05818608  0.76223572  0.14599373     0.06500
C760        C  0.02844070  0.86564715  0.17692562     0.03530
C761        C  0.03165120  0.87515548  0.20921595    -0.12620
C762        C  0.04516016  0.85385335  0.23102991     0.01030
C763        C  0.05784172  0.82597061  0.21841531    -0.11140
C764        C  0.04502676  0.81218916  0.19104979     0.03530
C765        C  0.03150119  0.83301663  0.16881979    -0.10560
H766        H  0.02518404  0.89887741  0.21665152     0.09120
H767        H  0.07378030  0.81247456  0.23243380     0.06650
H768        H  0.02491116  0.82457723  0.14542490     0.06500
O769        O  0.45564644  0.99364537  0.00428928    -0.79730
O770        O  0.13545201  0.99279165  0.99782139    -0.81280
O771        O  0.04711307  0.95465536  0.44766531    -0.78300
O772        O  0.04433671  0.95337086  0.05140992    -0.76680
O773        O  0.04278521  0.99125576  0.09048217    -0.78480
O774        O  0.05065425  0.99347701  0.40943562    -0.79410
O775        O  0.09753205  0.95448988  0.99794590    -0.80730
O776        O  0.49348580  0.95510262  0.00260268    -0.81020
Eu777      Eu  0.04575168  0.98062137  0.99991126     2.39200
O778        O  0.07818229  0.51197989  0.03284617    -0.88530
O779        O  0.01380969  0.51307808  0.46767089    -0.92140
C780        C  0.46456142  0.96436516  0.00508663     1.02550
C781        C  0.12655560  0.96345000  0.99675811     1.02370
C782        C  0.05007775  0.96417984  0.41862836     1.02320
C783        C  0.04268455  0.96215100  0.08070134     1.00170
H784        H  0.09133426  0.50064418  0.45480541     0.29920
O785        O  0.07789783  0.51330261  0.46818280    -1.00920
H786        H  0.00080451  0.49997271  0.04602753     0.29960
O787        O  0.01408833  0.51280597  0.03255510    -1.03460
O788        O  0.13517274  0.59761392  0.00231795    -0.80690
O789        O  0.45661691  0.59766536  0.99742714    -0.80230
O790        O  0.09853429  0.55076936  0.41084126    -0.78660
O791        O  0.09784812  0.54216623  0.09163270    -0.82000
O792        O  0.49504671  0.54987371  0.09094889    -0.79860
O793        O  0.49457156  0.54101890  0.40949084    -0.78510
O794        O  0.04230210  0.63596482  0.44873004    -0.80030
O795        O  0.04915627  0.63509946  0.05338188    -0.81950
O796        O  0.04230555  0.59780491  0.40988935    -0.78690
O797        O  0.04955204  0.59612656  0.09156603    -0.81370
O798        O  0.13645601  0.54905132  0.44944740    -0.77100
O799        O  0.45665817  0.54074038  0.44786479    -0.77130
O800        O  0.45669224  0.54955944  0.05294732    -0.76780
O801        O  0.13559550  0.54249278  0.05295327    -0.80270
O802        O  0.09710823  0.63575245  0.00119943    -0.79700
O803        O  0.49475874  0.63565531  0.00001998    -0.78030
Eu804      Eu  0.10976784  0.54503490  0.00078317     2.39770
Eu805      Eu  0.48210433  0.54524003  0.00045125     2.39570
Eu806      Eu  0.04624383  0.54551445  0.43574350     2.38400
Eu807      Eu  0.04628909  0.54425184  0.06512849     2.39880
Eu808      Eu  0.04595990  0.60928889  0.00089132     2.39790
O809        O  0.01409641  0.57710133  0.03321288    -0.92440
O810        O  0.07808404  0.57773750  0.46831357    -0.91330
C811        C  0.12611897  0.62694263  0.00203202     1.02730
C812        C  0.46579920  0.62694201  0.99777975     1.01450
C813        C  0.12756633  0.55156536  0.42020910     1.00840
C814        C  0.12673308  0.54149107  0.08226611     1.02850
C815        C  0.46597484  0.55115912  0.08223626     1.01770
C816        C  0.46560557  0.53925892  0.41853272     1.00610
C817        C  0.04087791  0.62687639  0.41944991     1.00670
C818        C  0.05072098  0.62545587  0.08255729     1.03290
H819        H  0.00073273  0.58989835  0.45500604     0.30660
O820        O  0.01421308  0.57706753  0.46832862    -1.04600
H821        H  0.09144910  0.58957875  0.04636582     0.32710
O822        O  0.07799594  0.57673493  0.03306269    -1.07170
C823        C  0.06013217  0.89566223  0.13907138    -0.11860
C824        C  0.03011272  0.88988974  0.15162215     0.05140
C825        C  0.00393606  0.90716413  0.13999498    -0.07150
C826        C  0.00915321  0.93082557  0.11681655    -0.07890
C827        C  0.03934998  0.93684689  0.10464859    -0.02450
C828        C  0.06521561  0.91844840  0.11527783     0.04370
N829        N  0.09662161  0.92250789  0.10284998     0.66880
H830        H  0.07987589  0.88182421  0.14785967     0.15780
H831        H  0.48947543  0.94472569  0.10799883     0.15490
N832        N  0.47223821  0.90073996  0.15047333     0.74580
O833        O  0.12018311  0.91381120  0.11908119    -0.38870
O834        O  0.10114425  0.93307477  0.07512669    -0.38810
O835        O  0.46697199  0.88663736  0.17644594    -0.39520
O836        O  0.44907679  0.90936642  0.13363434    -0.39580
C837        C  0.07649028  0.69817129  0.12964415    -0.11860
C838        C  0.05586199  0.69665654  0.15556834     0.05140
C839        C  0.03397011  0.67127242  0.15746165    -0.07150
C840        C  0.03385147  0.64783278  0.13390479    -0.07890
C841        C  0.05401841  0.64965582  0.10772024    -0.02450
C842        C  0.07607454  0.67482422  0.10578517     0.04370
N843        N  0.09906079  0.67624376  0.08079999     0.66880
H844        H  0.09346961  0.71733159  0.12835491     0.15780
H845        H  0.01665571  0.62883722  0.13515801     0.15490
N846        N  0.01031690  0.66996799  0.18181301     0.74580
O847        O  0.10951559  0.70275836  0.07150290    -0.38870
O848        O  0.11248265  0.65118876  0.07154459    -0.38810
O849        O  0.49389564  0.69420586  0.18782918    -0.39520
O850        O  0.00237039  0.64353909  0.19358706    -0.39580
C851        C  0.02473708  0.92720772  0.38165503    -0.11860
C852        C  0.05268863  0.93962490  0.39400180     0.05140
C853        C  0.08204011  0.92913910  0.38196618    -0.07150
C854        C  0.08229334  0.90661415  0.35724414    -0.07890
C855        C  0.05419417  0.89450647  0.34468017    -0.02450
C856        C  0.02495161  0.90504142  0.35689438     0.04370
N857        N  0.49531799  0.89350719  0.34473583     0.66880
H858        H  0.50244627  0.93539096  0.39105170     0.15780
H859        H  0.10448925  0.89789187  0.34814762     0.15490
N860        N  0.11153768  0.94049447  0.39465460     0.74580
O861        O  0.47164806  0.89198290  0.36275364    -0.38870
O862        O  0.49146836  0.88886998  0.31534470    -0.38810
O863        O  0.11371053  0.94945688  0.42318003    -0.39520
O864        O  0.13630694  0.93879015  0.37824113    -0.39580
C865        C  0.00905162  0.69337323  0.36690521    -0.11860
C866        C  0.03571309  0.70007900  0.34859875     0.05140
C867        C  0.06369959  0.68239912  0.35346123    -0.07150
C868        C  0.06414320  0.65825167  0.37640485    -0.07890
C869        C  0.03765722  0.65157942  0.39486591    -0.02450
C870        C  0.00935512  0.66884707  0.38980851     0.04370
N871        N  0.48066877  0.66122438  0.40649496     0.66880
H872        H  0.48766527  0.70672240  0.36251306     0.15780
H873        H  0.08567989  0.64501582  0.38053281     0.15490
N874        N  0.09201504  0.68899512  0.33587782     0.74580
O875        O  0.45819282  0.68085484  0.40695346    -0.38870
O876        O  0.47608283  0.63370635  0.41753616    -0.38810
O877        O  0.10011228  0.71727289  0.33005433    -0.39520
O878        O  0.11097267  0.66680435  0.32955721    -0.39580
C879        C  0.42523261  0.56349029  0.16243627    -0.11860
C880        C  0.39306169  0.56514285  0.15388360     0.05140
C881        C  0.38577983  0.56199844  0.12080355    -0.07150
C882        C  0.40990086  0.55861333  0.09838675    -0.07890
C883        C  0.44153512  0.55538705  0.10743434    -0.02450
C884        C  0.44895087  0.55699121  0.14024646     0.04370
N885        N  0.47989346  0.54985370  0.15203360     0.66880
H886        H  0.43265145  0.56528507  0.18685914     0.15780
H887        H  0.40334647  0.55684267  0.07352362     0.15490
N888        N  0.35423946  0.55950520  0.10908136     0.74580
O889        O  0.49280102  0.56814037  0.17192084    -0.38870
O890        O  0.99105322  0.52232940  0.14813951    -0.38810
O891        O  0.34427178  0.57957519  0.08906927    -0.39520
O892        O  0.33936388  0.53380648  0.11281242    -0.39580
C893        C  0.17803413  0.56007946  0.10224326    -0.11860
C894        C  0.15182874  0.54037021  0.10668857     0.05140
C895        C  0.14984748  0.52154228  0.13464172    -0.07150
C896        C  0.17451729  0.52266459  0.15694830    -0.07890
C897        C  0.20047825  0.54287768  0.15274957    -0.02450
C898        C  0.20169813  0.56247598  0.12531054     0.04370
N899        N  0.22525911  0.58669526  0.12157436     0.66880
H900        H  0.17909684  0.57538851  0.08148146     0.15780
H901        H  0.17346582  0.50742802  0.17771446     0.15490
N902        N  0.12355338  0.00084321  0.14065544     0.74580
O903        O  0.23686727  0.59212660  0.09450263    -0.38870
O904        O  0.23053369  0.60604733  0.14385582    -0.38810
O905        O  0.11036101  0.98625703  0.11813346    -0.39520
O906        O  0.11548956  0.99451595  0.16885141    -0.39580
C907        C  0.20583887  0.56712054  0.37819988    -0.11860
C908        C  0.19926348  0.55599485  0.34743269     0.05140
C909        C  0.16859911  0.54420007  0.34081952    -0.07150
C910        C  0.14555659  0.54463537  0.36452860    -0.07890
C911        C  0.15233777  0.55496852  0.39546900    -0.02450
C912        C  0.18297911  0.56657173  0.40222813     0.04370
N913        N  0.19123068  0.57862095  0.43300162     0.66880
H914        H  0.22884938  0.57674484  0.38367704     0.15780
H915        H  0.12254975  0.53490573  0.35909028     0.15490
N916        N  0.16087866  0.52943540  0.31105856     0.74580
O917        O  0.21684905  0.57042241  0.44593597    -0.38870
O918        O  0.17559620  0.60112693  0.44484330    -0.38810
O919        O  0.17704240  0.50631890  0.30121517    -0.39520
O920        O  0.13510603  0.53583454  0.29743954    -0.39580
C921        C  0.40940920  0.54284986  0.40130734    -0.11860
C922        C  0.44064340  0.53516774  0.39374451     0.05140
C923        C  0.44715806  0.52443117  0.36259876    -0.07150
C924        C  0.42262107  0.52061315  0.34053016    -0.07890
C925        C  0.39138156  0.52927036  0.34761684    -0.02450
C926        C  0.38517309  0.54130776  0.37859578     0.04370
N927        N  0.35529509  0.55471053  0.38692701     0.66880
H928        H  0.40394772  0.55216443  0.42464481     0.15780
H929        H  0.42853946  0.51099755  0.31751112     0.15490
N930        N  0.47858939  0.51780526  0.35252803     0.74580
O931        O  0.34239163  0.54690834  0.41280147    -0.38870
O932        O  0.34495629  0.57849450  0.37179215    -0.38810
O933        O  0.99231565  0.49292304  0.36196987    -0.39520
O934        O  0.49114896  0.53476696  0.33126358    -0.39580
C935        C  0.16957811  0.88475346  0.48224995    -0.11860
C936        C  0.20163807  0.89405896  0.98153667     0.05140
C937        C  0.20783515  0.92706237  0.98634531    -0.07150
C938        C  0.18312125  0.94852912  0.99120201    -0.07890
C939        C  0.15159041  0.93877986  0.99263524    -0.02450
C940        C  0.14499484  0.90616119  0.48825837     0.04370
N941        N  0.11367789  0.89376369  0.99082315     0.66880
H942        H  0.16272499  0.86025423  0.47991315     0.15780
H943        H  0.18910006  0.97333383  0.99450367     0.15490
N944        N  0.23888458  0.93986871  0.48779689     0.74580
O945        O  0.10245184  0.87718967  0.46853724    -0.38870
O946        O  0.10025633  0.89343378  0.01755660    -0.38810
O947        O  0.24944553  0.95511615  0.46424577    -0.39520
O948        O  0.25234535  0.94255089  0.01446804    -0.39580
C949        C  0.16819752  0.70725343  0.00334683    -0.11860
C950        C  0.19988405  0.69861524  0.00930099     0.05140
C951        C  0.20641593  0.66534105  0.51152417    -0.07150
C952        C  0.18193256  0.64314157  0.51014085    -0.07890
C953        C  0.15081310  0.65209025  0.00365899    -0.02450
C954        C  0.14417160  0.68475867  0.99940591     0.04370
N955        N  0.11385203  0.69568385  0.98884874     0.66880
H956        H  0.16165808  0.73162907  0.99909454     0.15780
H957        H  0.18788570  0.61822263  0.51271719     0.15490
N958        N  0.23759588  0.65267571  0.51216932     0.74580
O959        O  0.10134496  0.71948864  0.00192297    -0.38870
O960        O  0.10290140  0.68600717  0.46265373    -0.38810
O961        O  0.24676751  0.63711800  0.03617941    -0.39520
O962        O  0.25261299  0.65024310  0.48643048    -0.39580
C963        C  0.40960783  0.64360525  0.49831633    -0.11860
C964        C  0.44131058  0.65209916  0.99476126     0.05140
C965        C  0.44861248  0.68417911  0.98771984    -0.07150
C966        C  0.42433447  0.70626962  0.98326588    -0.07890
C967        C  0.39262047  0.69840858  0.98909513    -0.02450
C968        C  0.38553624  0.66625616  0.49697159     0.04370
N969        N  0.35468686  0.65624749  0.50634597     0.66880
H970        H  0.40339876  0.61934046  0.50428355     0.15780
H971        H  0.43096103  0.73015222  0.97663652     0.15490
N972        N  0.48042787  0.69542229  0.98698206     0.74580
O973        O  0.34199313  0.63279062  0.49274420    -0.38870
O974        O  0.34308849  0.66644419  0.03196193    -0.38810
O975        O  0.99118173  0.70775984  0.46189039    -0.39520
O976        O  0.49497434  0.69956399  0.01287504    -0.39580
C977        C  0.38816730  0.92148811  0.02656868    -0.11860
C978        C  0.39360774  0.89111131  0.01399700     0.05140
C979        C  0.42285004  0.88509055  0.49885932    -0.07150
C980        C  0.44575535  0.90898199  0.49752349    -0.07890
C981        C  0.44001690  0.93952545  0.00938337    -0.02450
C982        C  0.41077751  0.94569429  0.02431719     0.04370
N983        N  0.40380862  0.97600820  0.03809470     0.66880
H984        H  0.36626308  0.92649717  0.03864472     0.15780
H985        H  0.46768933  0.90402926  0.48542655     0.15490
N986        N  0.42902192  0.85581591  0.48258407     0.74580
O987        O  0.37757361  0.98909002  0.03271672    -0.38870
O988        O  0.42161223  0.48725652  0.05935759    -0.38810
O989        O  0.41056182  0.84648146  0.46095282    -0.39520
O990        O  0.45535542  0.84228340  0.98590578    -0.39580
C991        C  0.36799568  0.86683584  0.51460599     0.03530
C992        C  0.37518558  0.83392636  0.51867620    -0.12620
C993        C  0.35395765  0.81134040  0.50687081     0.01030
C994        C  0.32816030  0.82290425  0.99011305    -0.11200
C995        C  0.31506501  0.85219175  0.99760195     0.03530
C996        C  0.33606387  0.87564414  0.00817313    -0.10560
H997        H  0.39737497  0.82632282  0.52889686     0.09120
H998        H  0.31478019  0.80674487  0.97643556     0.06650
H999        H  0.32808348  0.89997605  0.00995553     0.06500
C1000       C  0.36840790  0.72436008  0.49119485     0.03530
C1001       C  0.37703041  0.75588938  0.50013863    -0.12620
C1002       C  0.35417116  0.77618422  0.51263316     0.01030
C1003       C  0.32504304  0.76250825  0.52013296    -0.11140
C1004       C  0.31356226  0.73767221  0.50147641     0.03530
C1005       C  0.33577876  0.71804614  0.48672403    -0.10560
H1006       H  0.40074197  0.76481139  0.49802359     0.09120
H1007       H  0.30919672  0.77517507  0.53514081     0.06650
H1008       H  0.32784497  0.69770163  0.47322610     0.06500
C1009       C  0.22504020  0.72433018  0.50816499     0.03530
C1010       C  0.25783079  0.71742747  0.50931810    -0.12620
C1011       C  0.27915410  0.73760594  0.49402046     0.01030
C1012       C  0.26670147  0.76422063  0.47843268    -0.11140
C1013       C  0.23886007  0.77785918  0.48978396     0.03530
C1014       C  0.21705282  0.75712639  0.50380983    -0.10560
H1015       H  0.26726322  0.69786253  0.52283140     0.09120
H1016       H  0.28087081  0.77731327  0.46201184     0.06650
H1017       H  0.19489472  0.76681122  0.51170899     0.06500
C1018       C  0.22707481  0.86845274  0.48094445     0.03530
C1019       C  0.25995386  0.87534582  0.48437984    -0.12620
C1020       C  0.27969489  0.85295093  0.49908347     0.01030
C1021       C  0.26529957  0.82541372  0.51062696    -0.11140
C1022       C  0.23917680  0.81317583  0.49492706     0.03530
C1023       C  0.21888046  0.83533031  0.48066594    -0.10560
H1024       H  0.27058450  0.89657366  0.47505567     0.09120
H1025       H  0.27819186  0.81020924  0.52612279     0.06650
H1026       H  0.19752191  0.82657015  0.46987759     0.06500
C1027       C  0.36671530  0.52888922  0.82177087     0.03530
C1028       C  0.33386291  0.52591171  0.82903858    -0.12620
C1029       C  0.31164070  0.53856679  0.80761671     0.01030
C1030       C  0.32372072  0.55426228  0.78126978    -0.11140
C1031       C  0.35209595  0.54514491  0.76785920     0.03530
C1032       C  0.37519186  0.53437895  0.78917009    -0.10560
H1033       H  0.32602076  0.51566928  0.85127183     0.09120
H1034       H  0.30847693  0.56880240  0.76781515     0.06650
H1035       H  0.39901165  0.53198356  0.78065681     0.06500
C1036       C  0.22477844  0.55486503  0.82312210     0.03530
C1037       C  0.25617697  0.54594225  0.83151541    -0.12620
C1038       C  0.27633272  0.53473646  0.80765680     0.01030
C1039       C  0.26248634  0.52907759  0.77784828    -0.11140
C1040       C  0.23777480  0.54830001  0.76722849     0.03530
C1041       C  0.21787047  0.56081333  0.79049083    -0.10560
H1042       H  0.26456379  0.54693408  0.85580830     0.09120
H1043       H  0.27483391  0.51498613  0.76101102     0.06650
H1044       H  0.19673437  0.57341937  0.78345467     0.06500
C1045       C  0.22494180  0.54510395  0.67799299     0.03530
C1046       C  0.21628571  0.54624791  0.71057094    -0.12620
C1047       C  0.23788241  0.55786641  0.73286277     0.01030
C1048       C  0.26560421  0.57137438  0.72091145    -0.11140
C1049       C  0.27839870  0.56039663  0.69227606     0.03530
C1050       C  0.25731585  0.54769945  0.66999624    -0.10560
H1051       H  0.19313659  0.53902128  0.71843868     0.09120
H1052       H  0.27926655  0.58682668  0.73562010     0.06650
H1053       H  0.26560552  0.54091791  0.64665007     0.06500
C1054       C  0.36817431  0.56517083  0.67981637     0.03530
C1055       C  0.37587475  0.55779471  0.71234982    -0.12620
C1056       C  0.35274405  0.54446514  0.73199542     0.01030
C1057       C  0.32469879  0.53562200  0.71701709    -0.11140
C1058       C  0.31310034  0.55399678  0.69205643     0.03530
C1059       C  0.33544746  0.56925192  0.67282866    -0.10560
H1060       H  0.39880823  0.56181195  0.72257224     0.09120
H1061       H  0.30916650  0.51981651  0.72892394     0.06650
H1062       H  0.32740950  0.58345266  0.65298212     0.06500
C1063       C  0.03427965  0.72472866  0.82363013     0.03530
C1064       C  0.03514446  0.75751900  0.83185669    -0.12620
C1065       C  0.04665312  0.77931981  0.80936287     0.01030
C1066       C  0.05962172  0.76646849  0.78175207    -0.11140
C1067       C  0.04842385  0.73787471  0.76929401     0.03530
C1068       C  0.03701115  0.71565017  0.79121593    -0.10560
H1069       H  0.02845221  0.76543609  0.85535626     0.09120
H1070       H  0.07415230  0.78104801  0.76741401     0.06650
H1071       H  0.03158019  0.69167175  0.78371312     0.06500
C1072       C  0.05520750  0.86920715  0.82053109     0.03530
C1073       C  0.05289483  0.83689315  0.83025439    -0.12620
C1074       C  0.04090631  0.81462830  0.80865148     0.01030
C1075       C  0.02861786  0.82682360  0.78023197    -0.11140
C1076       C  0.04100611  0.85441808  0.76655586     0.03530
C1077       C  0.05336681  0.87704882  0.78762517    -0.10560
H1078       H  0.05915262  0.82969923  0.85420247     0.09120
H1079       H  0.01333143  0.81241976  0.76650324     0.06650
H1080       H  0.05967734  0.90050888  0.77915222     0.06500
C1081       C  0.05600258  0.72235151  0.67963354     0.03530
C1082       C  0.05561168  0.71477884  0.71269167    -0.12620
C1083       C  0.04332535  0.73710720  0.73394041     0.01030
C1084       C  0.02971577  0.76419449  0.72051904    -0.11140
C1085       C  0.04096829  0.77668557  0.69196471     0.03530
C1086       C  0.05290183  0.75473642  0.67003979    -0.10560
H1087       H  0.06309134  0.69166119  0.72119953     0.09120
H1088       H  0.01454078  0.77823075  0.73459884     0.06650
H1089       H  0.05818454  0.76223565  0.64599368     0.06500
C1090       C  0.02843954  0.86564713  0.67692577     0.03530
C1091       C  0.03165052  0.87515544  0.70921605    -0.12620
C1092       C  0.04515961  0.85385322  0.73102983     0.01030
C1093       C  0.05784076  0.82597035  0.71841508    -0.11140
C1094       C  0.04502532  0.81218899  0.69104976     0.03530
C1095       C  0.03149965  0.83301656  0.66881991    -0.10560
H1096       H  0.02518367  0.89887743  0.71665169     0.09120
H1097       H  0.07377936  0.81247415  0.73243339     0.06650
H1098       H  0.02490932  0.82457722  0.64542510     0.06500
O1099       O  0.45564638  0.99364534  0.50428911    -0.79730
O1100       O  0.13545195  0.99279160  0.49782165    -0.81280
O1101       O  0.04711324  0.95465542  0.94766501    -0.78300
O1102       O  0.04433645  0.95337086  0.55141019    -0.76680
O1103       O  0.04278487  0.99125578  0.59048241    -0.78480
O1104       O  0.05065436  0.99347711  0.90943535    -0.79410
O1105       O  0.09753199  0.95448982  0.49794622    -0.80730
O1106       O  0.49348575  0.95510258  0.50260254    -0.81020
Eu1107     Eu  0.04575163  0.98062136  0.49991153     2.39200
O1108       O  0.07818197  0.51197990  0.53284619    -0.88530
O1109       O  0.01380980  0.51307815  0.96767107    -0.92140
C1110       C  0.46456137  0.96436512  0.50508648     1.02550
C1111       C  0.12655554  0.96344994  0.49675841     1.02370
C1112       C  0.05007793  0.96417993  0.91862806     1.02320
C1113       C  0.04268417  0.96215101  0.58070160     1.00170
H1114       H  0.09133436  0.50064422  0.95480538     0.29920
O1115       O  0.07789798  0.51330264  0.96818281    -1.00920
H1116       H  0.00080418  0.49997278  0.54602729     0.29960
O1117       O  0.01408805  0.51280600  0.53255489    -1.03460
O1118       O  0.13517262  0.59761385  0.50231813    -0.80690
O1119       O  0.45661680  0.59766539  0.49742656    -0.80230
O1120       O  0.09853426  0.55076940  0.91084123    -0.78660
O1121       O  0.09784755  0.54216576  0.59163276    -0.82000
O1122       O  0.49504633  0.54987379  0.59094828    -0.79860
O1123       O  0.49457175  0.54101966  0.90949147    -0.78510
O1124       O  0.04230210  0.63596488  0.94873018    -0.80030
O1125       O  0.04915613  0.63509946  0.55338179    -0.81950
O1126       O  0.04230563  0.59780498  0.90988949    -0.78690
O1127       O  0.04955178  0.59612655  0.59156593    -0.81370
O1128       O  0.13645613  0.54905145  0.94944724    -0.77100
O1129       O  0.45665840  0.54074021  0.94786544    -0.77130
O1130       O  0.45669205  0.54955937  0.55294648    -0.76780
O1131       O  0.13559506  0.54249214  0.55295346    -0.80270
O1132       O  0.09710813  0.63575239  0.50119940    -0.79700
O1133       O  0.49475865  0.63565530  0.50001942    -0.78030
Eu1134     Eu  0.10976763  0.54503485  0.50078326     2.39770
Eu1135     Eu  0.48210423  0.54524007  0.50045051     2.39570
Eu1136     Eu  0.04624393  0.54551454  0.93574366     2.38400
Eu1137     Eu  0.04628867  0.54425185  0.56512841     2.39880
Eu1138     Eu  0.04595978  0.60928887  0.50089122     2.39790
O1139       O  0.01409615  0.57710135  0.53321267    -0.92440
O1140       O  0.07808420  0.57773762  0.96831359    -0.91330
C1141       C  0.12611887  0.62694256  0.50203211     1.02730
C1142       C  0.46579911  0.62694204  0.49777923     1.01450
C1143       C  0.12756632  0.55156543  0.92020897     1.00840
C1144       C  0.12673252  0.54149024  0.58226625     1.02850
C1145       C  0.46597450  0.55115903  0.58223545     1.01770
C1146       C  0.46560581  0.53925924  0.91853334     1.00610
C1147       C  0.04087793  0.62687646  0.91945005     1.00670
C1148       C  0.05072079  0.62545586  0.58255720     1.03290
H1149       H  0.00073280  0.58989831  0.95500629     0.30660
O1150       O  0.01421317  0.57706750  0.96832886    -1.04600
H1151       H  0.09144888  0.58957869  0.54636590     0.32710
O1152       O  0.07799571  0.57673492  0.53306274    -1.07170
C1153       C  0.06013130  0.89566224  0.63907183    -0.11860
C1154       C  0.03011174  0.88988972  0.65162230     0.05140
C1155       C  0.00393516  0.90716407  0.63999488    -0.07150
C1156       C  0.00915251  0.93082553  0.61681651    -0.07890
C1157       C  0.03934939  0.93684689  0.60464884    -0.02450
C1158       C  0.06521492  0.91844840  0.61527831     0.04370
N1159       N  0.09662101  0.92250785  0.60285069     0.66880
H1160       H  0.07987495  0.88182425  0.64786029     0.15780
H1161       H  0.48947557  0.94472569  0.60799904     0.15490
N1162       N  0.47223851  0.90073985  0.65047349     0.74580
O1163       O  0.12018239  0.91381136  0.61908218    -0.38870
O1164       O  0.10114384  0.93307443  0.57512732    -0.38810
O1165       O  0.46697237  0.88663703  0.67644599    -0.39520
O1166       O  0.44907702  0.90936644  0.63363464    -0.39580
C1167       C  0.07648940  0.69817155  0.62964407    -0.11860
C1168       C  0.05586128  0.69665647  0.65556838     0.05140
C1169       C  0.03396986  0.67127194  0.65746183    -0.07150
C1170       C  0.03385142  0.64783236  0.63390492    -0.07890
C1171       C  0.05401813  0.64965578  0.60772021    -0.02450
C1172       C  0.07607390  0.67482449  0.60578506     0.04370
N1173       N  0.09906007  0.67624436  0.58079983     0.66880
H1174       H  0.09346845  0.71733211  0.62835475     0.15780
H1175       H  0.01665598  0.62883650  0.63515826     0.15490
N1176       N  0.01031691  0.66996699  0.68181342     0.74580
O1177       O  0.10951463  0.70275909  0.57150283    -0.38870
O1178       O  0.11248217  0.65118952  0.57154433    -0.38810
O1179       O  0.49389587  0.69420582  0.68782908    -0.39520
O1180       O  0.00237100  0.64353789  0.69358745    -0.39580
C1181       C  0.02473741  0.92720774  0.88165472    -0.11860
C1182       C  0.05268892  0.93962502  0.89400149     0.05140
C1183       C  0.08204044  0.92913930  0.88196589    -0.07150
C1184       C  0.08229375  0.90661430  0.85724388    -0.07890
C1185       C  0.05419462  0.89450651  0.84467992    -0.02450
C1186       C  0.02495203  0.90504140  0.85689411     0.04370
N1187       N  0.49531733  0.89350731  0.84473611     0.66880
H1188       H  0.50244591  0.93539120  0.89105184     0.15780
H1189       H  0.10448969  0.89789208  0.84814737     0.15490
N1190       N  0.11153797  0.94049480  0.89465428     0.74580
O1191       O  0.47164738  0.89198332  0.86275391    -0.38870
O1192       O  0.49146770  0.88886987  0.81534501    -0.38810
O1193       O  0.11371079  0.94945734  0.92317967    -0.39520
O1194       O  0.13630725  0.93879049  0.87824083    -0.39580
C1195       C  0.00905159  0.69337336  0.86690544    -0.11860
C1196       C  0.03571301  0.70007907  0.84859889     0.05140
C1197       C  0.06369947  0.68239910  0.85346123    -0.07150
C1198       C  0.06414312  0.65825166  0.87640486    -0.07890
C1199       C  0.03765719  0.65157949  0.89486604    -0.02450
C1200       C  0.00935511  0.66884719  0.88980873     0.04370
N1201       N  0.48066870  0.66122405  0.90649515     0.66880
H1202       H  0.48766506  0.70672188  0.86251303     0.15780
H1203       H  0.08567979  0.64501574  0.88053272     0.15490
N1204       N  0.09201484  0.68899497  0.83587765     0.74580
O1205       O  0.45819270  0.68085446  0.90695360    -0.38870
O1206       O  0.47608284  0.63370606  0.91753647    -0.38810
O1207       O  0.10011217  0.71727270  0.83005411    -0.39520
O1208       O  0.11097233  0.66680411  0.82955690    -0.39580
C1209       C  0.42523155  0.56348356  0.66243599    -0.11860
C1210       C  0.39306102  0.56514329  0.65388264     0.05140
C1211       C  0.38577992  0.56200477  0.62080175    -0.07150
C1212       C  0.40990114  0.55861875  0.59838530    -0.07890
C1213       C  0.44153465  0.55538683  0.60743335    -0.02450
C1214       C  0.44894968  0.55698523  0.64024584     0.04370
N1215       N  0.47989128  0.54984287  0.65203270     0.66880
H1216       H  0.43265020  0.56527137  0.68685937     0.15780
H1217       H  0.40334724  0.55685265  0.57352168     0.15490
N1218       N  0.35423979  0.55951871  0.60907763     0.74580
O1219       O  0.49280024  0.56812536  0.67192291    -0.38870
O1220       O  0.99104856  0.52231822  0.64813427    -0.38810
O1221       O  0.34427486  0.57959666  0.58907217    -0.39520
O1222       O  0.33936209  0.53381975  0.61279838    -0.39580
C1223       C  0.17803392  0.56007712  0.60224384    -0.11860
C1224       C  0.15182805  0.54036845  0.60668878     0.05140
C1225       C  0.14984633  0.52154001  0.63464158    -0.07150
C1226       C  0.17451623  0.52266114  0.65694810    -0.07890
C1227       C  0.20047775  0.54287351  0.65274964    -0.02450
C1228       C  0.20169804  0.56247249  0.62531111     0.04370
N1229       N  0.22525953  0.58669137  0.62157555     0.66880
H1230       H  0.17909697  0.57538659  0.58148238     0.15780
H1231       H  0.17346439  0.50742428  0.67771404     0.15490
N1232       N  0.12355296  0.00084269  0.64065554     0.74580
O1233       O  0.23686750  0.59212347  0.59450388    -0.38870
O1234       O  0.23053468  0.60604260  0.64385762    -0.38810
O1235       O  0.11036028  0.98625689  0.61813350    -0.39520
O1236       O  0.11548927  0.99451521  0.66885150    -0.39580
C1237       C  0.20583834  0.56712158  0.87819921    -0.11860
C1238       C  0.19926319  0.55599486  0.84743232     0.05140
C1239       C  0.16859912  0.54419901  0.84081958    -0.07150
C1240       C  0.14555663  0.54463440  0.86452868    -0.07890
C1241       C  0.15233763  0.55496855  0.89546877    -0.02450
C1242       C  0.18297867  0.56657270  0.90222755     0.04370
N1243       N  0.19123002  0.57862276  0.93300076     0.66880
H1244       H  0.22884855  0.57674673  0.88367608     0.15780
H1245       H  0.12255004  0.53490398  0.85909070     0.15490
N1246       N  0.16087900  0.52943318  0.81105912     0.74580
O1247       O  0.21684869  0.57042526  0.94593517    -0.38870
O1248       O  0.17559481  0.60112837  0.94484219    -0.38810
O1249       O  0.17704315  0.50631660  0.80121660    -0.39520
O1250       O  0.13510631  0.53583141  0.79743981    -0.39580
C1251       C  0.40940963  0.54285080  0.90130794    -0.11860
C1252       C  0.44064374  0.53516838  0.89374503     0.05140
C1253       C  0.44715842  0.52443259  0.86259893    -0.07150
C1254       C  0.42262144  0.52061598  0.84053006    -0.07890
C1255       C  0.39138208  0.52927344  0.84761693    -0.02450
C1256       C  0.38517362  0.54130983  0.87859624     0.04370
N1257       N  0.35529575  0.55471272  0.88692777     0.66880
H1258       H  0.40394818  0.55216480  0.92464565     0.15780
H1259       H  0.42853966  0.51100088  0.81751076     0.15490
N1260       N  0.47858962  0.51780563  0.85252821     0.74580
O1261       O  0.34239213  0.54690995  0.91280197    -0.38870
O1262       O  0.34495716  0.57849712  0.87179345    -0.38810
O1263       O  0.99231672  0.49292558  0.86197340    -0.39520
O1264       O  0.49114648  0.53476112  0.83125717    -0.39580
C1265       C  0.16957809  0.88475353  0.98224937    -0.11860
C1266       C  0.20163806  0.89405898  0.48153684     0.05140
C1267       C  0.20783508  0.92706244  0.48634514    -0.07150
C1268       C  0.18312117  0.94852914  0.49120198    -0.07890
C1269       C  0.15159036  0.93877982  0.49263553    -0.02450
C1270       C  0.14499483  0.90616127  0.98825781     0.04370
N1271       N  0.11367793  0.89376356  0.49082392     0.66880
H1272       H  0.16272492  0.86025436  0.97991221     0.15780
H1273       H  0.18909995  0.97333390  0.49450338     0.15490
N1274       N  0.23888468  0.93986850  0.98779769     0.74580
O1275       O  0.10245186  0.87718999  0.96853630    -0.38870
O1276       O  0.10025646  0.89343385  0.51755742    -0.38810
O1277       O  0.24944574  0.95511692  0.96424726    -0.39520
O1278       O  0.25234532  0.94255227  0.51446708    -0.39580
C1279       C  0.16819743  0.70725338  0.50334681    -0.11860
C1280       C  0.19988395  0.69861521  0.50930099     0.05140
C1281       C  0.20641603  0.66534107  0.01152408    -0.07150
C1282       C  0.18193266  0.64314160  0.01014072    -0.07890
C1283       C  0.15081300  0.65209020  0.50365907    -0.02450
C1284       C  0.14417150  0.68475861  0.49940593     0.04370
N1285       N  0.11385194  0.69568378  0.48884874     0.66880
H1286       H  0.16165798  0.73162901  0.49909448     0.15780
H1287       H  0.18788581  0.61822266  0.01271701     0.15490
N1288       N  0.23759598  0.65267574  0.01216918     0.74580
O1289       O  0.10134487  0.71948859  0.50192293    -0.38870
O1290       O  0.10290146  0.68600724  0.96265374    -0.38810
O1291       O  0.24676729  0.63711778  0.53617947    -0.39520
O1292       O  0.25261300  0.65024300  0.98643031    -0.39580
C1293       C  0.40960789  0.64360520  0.99831649    -0.11860
C1294       C  0.44131050  0.65209921  0.49476089     0.05140
C1295       C  0.44861234  0.68417916  0.48771933    -0.07150
C1296       C  0.42433427  0.70626962  0.48326542    -0.07890
C1297       C  0.39262032  0.69840857  0.48909490    -0.02450
C1298       C  0.38553632  0.66625615  0.99697169     0.04370
N1299       N  0.35468690  0.65624748  0.00634594     0.66880
H1300       H  0.40339877  0.61934041  0.00428360     0.15780
H1301       H  0.43096073  0.73015222  0.47663594     0.15490
N1302       N  0.48042772  0.69542243  0.48698130     0.74580
O1303       O  0.34199322  0.63279062  0.99274411    -0.38870
O1304       O  0.34308854  0.66644423  0.53196199    -0.38810
O1305       O  0.99118090  0.70776162  0.96189044    -0.39520
O1306       O  0.49497484  0.69956274  0.51287414    -0.39580
C1307       C  0.38816731  0.92148804  0.52656871    -0.11860
C1308       C  0.39360774  0.89111123  0.51399704     0.05140
C1309       C  0.42285007  0.88509062  0.99885935    -0.07150
C1310       C  0.44575540  0.90898204  0.99752359    -0.07890
C1311       C  0.44001686  0.93952541  0.50938326    -0.02450
C1312       C  0.41077750  0.94569424  0.52431714     0.04370
N1313       N  0.40380862  0.97600817  0.53809461     0.66880
H1314       H  0.36626313  0.92649710  0.53864481     0.15780
H1315       H  0.46768941  0.90402931  0.98542669     0.15490
N1316       N  0.42902198  0.85581599  0.98258409     0.74580
O1317       O  0.37757359  0.98908997  0.53271663    -0.38870
O1318       O  0.42161218  0.48725682  0.55935694    -0.38810
O1319       O  0.41056192  0.84648155  0.96095280    -0.39520
O1320       O  0.45535538  0.84228335  0.48590569    -0.39580
C1321       C  0.86800130  0.36683514  0.01460624     0.03530
C1322       C  0.87518953  0.33392561  0.01867792    -0.12620
C1323       C  0.85396028  0.31134027  0.00687404     0.01030
C1324       C  0.82816434  0.32290407  0.49011461    -0.11200
C1325       C  0.81507002  0.35219207  0.49760188     0.03530
C1326       C  0.83606975  0.37564455  0.50817204    -0.10560
H1327       H  0.89737839  0.32632139  0.02889929     0.09120
H1328       H  0.81478419  0.30674451  0.47643732     0.06650
H1329       H  0.82809033  0.39997687  0.50995328     0.06500
C1330       C  0.86840774  0.22436342  0.99119309     0.03530
C1331       C  0.87703103  0.25589102  0.00014029    -0.12620
C1332       C  0.85417265  0.27618468  0.01263714     0.01030
C1333       C  0.82504406  0.26250874  0.02013649    -0.11140
C1334       C  0.81356280  0.23767308  0.00147920     0.03530
C1335       C  0.83577873  0.21804975  0.98672283    -0.10560
H1336       H  0.90074275  0.26481283  0.99802575     0.09120
H1337       H  0.80919793  0.27517519  0.03514500     0.06650
H1338       H  0.82784469  0.19770656  0.97322301     0.06500
C1339       C  0.72503981  0.22432940  0.00816407     0.03530
C1340       C  0.75783059  0.21742658  0.00931830    -0.12620
C1341       C  0.77915472  0.23760650  0.99402326     0.01030
C1342       C  0.76670295  0.26422121  0.97843559    -0.11140
C1343       C  0.73886194  0.27785982  0.98978664     0.03530
C1344       C  0.71705314  0.25712632  0.00381001    -0.10560
H1345       H  0.76726247  0.19786038  0.02283010     0.09120
H1346       H  0.78087299  0.27731419  0.96201572     0.06650
H1347       H  0.69489447  0.26681094  0.01170777     0.06500
C1348       C  0.72708175  0.36845299  0.98093946     0.03530
C1349       C  0.75996068  0.37534497  0.98437491    -0.12620
C1350       C  0.77970003  0.35295151  0.99908248     0.01030
C1351       C  0.76530342  0.32541521  0.01062772    -0.11140
C1352       C  0.73917982  0.31317689  0.99492872     0.03530
C1353       C  0.71888575  0.33533098  0.98066389    -0.10560
H1354       H  0.77059230  0.39657119  0.97504798     0.09120
H1355       H  0.77819514  0.31021138  0.02612477     0.06650
H1356       H  0.69752751  0.32657078  0.96987497     0.06500
C1357       C  0.86670994  0.02888179  0.32176658     0.03530
C1358       C  0.83385759  0.02590526  0.32903536    -0.12620
C1359       C  0.81163513  0.03856180  0.30761450     0.01030
C1360       C  0.82371508  0.05425714  0.28126750    -0.11140
C1361       C  0.85208919  0.04513830  0.26785552     0.03530
C1362       C  0.87518549  0.03437086  0.28916541    -0.10560
H1363       H  0.82601585  0.01566336  0.35126902     0.09120
H1364       H  0.80847170  0.06879877  0.26781392     0.06650
H1365       H  0.89900496  0.03197459  0.28065145     0.06500
C1366       C  0.72477406  0.05486437  0.32312377     0.03530
C1367       C  0.75617250  0.04593992  0.33151556    -0.12620
C1368       C  0.77632682  0.03473399  0.30765570     0.01030
C1369       C  0.76247907  0.02907715  0.27784736    -0.11140
C1370       C  0.73776798  0.04830116  0.26722930     0.03530
C1371       C  0.71786522  0.06081453  0.29049299    -0.10560
H1372       H  0.76456015  0.04693035  0.35580822     0.09120
H1373       H  0.77482559  0.01498606  0.26100893     0.06650
H1374       H  0.69672936  0.07342177  0.28345818     0.06500
C1375       C  0.72493240  0.04511047  0.17799368     0.03530
C1376       C  0.71627742  0.04625255  0.21057206    -0.12620
C1377       C  0.73787492  0.05786934  0.23286400     0.01030
C1378       C  0.76559656  0.07137775  0.22091277    -0.11140
C1379       C  0.77838995  0.06040224  0.19227594     0.03530
C1380       C  0.75730620  0.04770660  0.16999602    -0.10560
H1381       H  0.69312859  0.03902544  0.21844023     0.09120
H1382       H  0.77925991  0.08682814  0.23562256     0.06650
H1383       H  0.76559517  0.04092596  0.14664933     0.06500
C1384       C  0.86816597  0.06517291  0.17981472     0.03530
C1385       C  0.87586749  0.05779060  0.21234647    -0.12620
C1386       C  0.85273612  0.04446155  0.23199158     0.01030
C1387       C  0.82468935  0.03562284  0.21701337    -0.11140
C1388       C  0.81309148  0.05400130  0.19205511     0.03530
C1389       C  0.83543918  0.06925755  0.17282867    -0.10560
H1390       H  0.89880272  0.06180103  0.22256755     0.09120
H1391       H  0.80915602  0.01981744  0.22891910     0.06650
H1392       H  0.82740227  0.08345941  0.15298230     0.06500
C1393       C  0.53427953  0.22472885  0.32362805     0.03530
C1394       C  0.53514402  0.25751922  0.33185444    -0.12620
C1395       C  0.54665308  0.27931995  0.30936080     0.01030
C1396       C  0.55962202  0.26646849  0.28175021    -0.11140
C1397       C  0.54842434  0.23787458  0.26929225     0.03530
C1398       C  0.53701147  0.21565013  0.29121404    -0.10560
H1399       H  0.52845131  0.26543638  0.35535384     0.09120
H1400       H  0.57415308  0.28104781  0.26741245     0.06650
H1401       H  0.53158067  0.19167165  0.28371128     0.06500
C1402       C  0.55520779  0.36920750  0.32052809     0.03530
C1403       C  0.55289513  0.33689355  0.33025171    -0.12620
C1404       C  0.54090605  0.31462840  0.30864930     0.01030
C1405       C  0.52861705  0.32682332  0.28022992    -0.11140
C1406       C  0.54100532  0.35441748  0.26655325     0.03530
C1407       C  0.55336645  0.37704860  0.28762202    -0.10560
H1408       H  0.55915357  0.32969982  0.35419967     0.09120
H1409       H  0.51333038  0.31241924  0.26650161     0.06650
H1410       H  0.55967713  0.40050840  0.27914849     0.06500
C1411       C  0.55600236  0.22235009  0.17963240     0.03530
C1412       C  0.55561198  0.21477803  0.21269055    -0.12620
C1413       C  0.54332576  0.23710671  0.23393885     0.01030
C1414       C  0.52971574  0.26419357  0.22051718    -0.11140
C1415       C  0.54096787  0.27668417  0.19196250     0.03530
C1416       C  0.55290130  0.25473471  0.17003790    -0.10560
H1417       H  0.56309172  0.19166053  0.22119876     0.09120
H1418       H  0.51454117  0.27823022  0.23459705     0.06650
H1419       H  0.55818359  0.26223341  0.14599152     0.06500
C1420       C  0.52843979  0.36564550  0.17692296     0.03530
C1421       C  0.53164976  0.37515380  0.20921327    -0.12620
C1422       C  0.54515862  0.35385183  0.23102725     0.01030
C1423       C  0.55784000  0.32596896  0.21841277    -0.11140
C1424       C  0.54502507  0.31218749  0.19104726     0.03530
C1425       C  0.53149992  0.33301497  0.16881707    -0.10560
H1426       H  0.52518313  0.39887594  0.21664864     0.09120
H1427       H  0.57377854  0.31247293  0.23243120     0.06650
H1428       H  0.52491051  0.32457572  0.14542195     0.06500
O1429       O  0.95565012  0.49363955  0.00428105    -0.79730
O1430       O  0.63546175  0.49279416  0.99781871    -0.81280
O1431       O  0.54711899  0.45465518  0.44766787    -0.78300
O1432       O  0.54434360  0.45337408  0.05141080    -0.76680
O1433       O  0.54278280  0.49125619  0.09047393    -0.78480
O1434       O  0.55066011  0.49347649  0.40943582    -0.79410
O1435       O  0.59753933  0.45449271  0.99794843    -0.80730
O1436       O  0.99349153  0.45509326  0.00260800    -0.81020
Eu1437     Eu  0.54573585  0.48062114  0.99992993     2.39200
O1438       O  0.57817984  0.01197941  0.03284643    -0.88530
O1439       O  0.51379907  0.01307804  0.46766775    -0.92140
C1440       C  0.96456712  0.46435712  0.00508663     1.02550
C1441       C  0.62656487  0.46345247  0.99675690     1.02370
C1442       C  0.55008424  0.46417925  0.41862912     1.02320
C1443       C  0.54268769  0.46215393  0.08069775     1.00170
H1444       H  0.59133137  0.00064361  0.45480215     0.29920
O1445       O  0.57789602  0.01330446  0.46817795    -1.00920
H1446       H  0.50139273  0.99971867  0.04620450     0.29960
O1447       O  0.51426975  0.01281939  0.03253103    -1.03460
O1448       O  0.63516851  0.09761278  0.00231994    -0.80690
O1449       O  0.95661425  0.09766928  0.99742214    -0.80230
O1450       O  0.59853021  0.05076836  0.41084223    -0.78660
O1451       O  0.59783933  0.04216946  0.09163611    -0.82000
O1452       O  0.99503847  0.04987540  0.09093967    -0.79860
O1453       O  0.99456844  0.04102093  0.40948592    -0.78510
O1454       O  0.54229933  0.13596576  0.44872867    -0.80030
O1455       O  0.54914998  0.13510002  0.05338136    -0.81950
O1456       O  0.54230305  0.09780589  0.40988789    -0.78690
O1457       O  0.54954596  0.09612914  0.09156565    -0.81370
O1458       O  0.63645105  0.04904940  0.44944947    -0.77100
O1459       O  0.95665464  0.04074501  0.44785980    -0.77130
O1460       O  0.95668123  0.04955754  0.05294377    -0.76780
O1461       O  0.63558476  0.04249199  0.05295676    -0.80270
O1462       O  0.59710484  0.13575231  0.00119998    -0.79700
O1463       O  0.99475608  0.13565921  0.00001839    -0.78030
Eu1464     Eu  0.60976167  0.04503428  0.00078452     2.39770
Eu1465     Eu  0.98209368  0.04522732  0.00046393     2.39570
Eu1466     Eu  0.54623776  0.04551571  0.43574246     2.38400
Eu1467     Eu  0.54630340  0.04426825  0.06512848     2.39880
Eu1468     Eu  0.54595433  0.10928989  0.00089013     2.39790
O1469       O  0.51408578  0.07710415  0.03321289    -0.92440
O1470       O  0.57807836  0.07773689  0.46831409    -0.91330
C1471       C  0.62611555  0.12694188  0.00203347     1.02730
C1472       C  0.96579678  0.12694625  0.99777620     1.01450
C1473       C  0.62756208  0.05156339  0.42021091     1.00840
C1474       C  0.62672233  0.04149159  0.08226944     1.02850
C1475       C  0.96596501  0.05116112  0.08223010     1.01770
C1476       C  0.96560228  0.03926256  0.41852727     1.00610
C1477       C  0.54087580  0.12687736  0.41944848     1.00670
C1478       C  0.55071402  0.12545678  0.08255671     1.03290
H1479       H  0.50072668  0.08990239  0.45500208     0.30660
O1480       O  0.51420284  0.07706869  0.46832767    -1.04600
H1481       H  0.59144564  0.08958206  0.04636747     0.32710
O1482       O  0.57799381  0.07673988  0.03306177    -1.07170
C1483       C  0.56013687  0.39565916  0.13907230    -0.11860
C1484       C  0.53011586  0.38988817  0.15162012     0.05140
C1485       C  0.50394165  0.40716530  0.13999191    -0.07150
C1486       C  0.50916229  0.43082721  0.11681509    -0.07890
C1487       C  0.53935915  0.43684852  0.10464842    -0.02450
C1488       C  0.56522377  0.41844672  0.11527980     0.04370
N1489       N  0.59663119  0.42250402  0.10285559     0.66880
H1490       H  0.57987892  0.38181922  0.14786195     0.15780
H1491       H  0.98948722  0.44472885  0.10799731     0.15490
N1492       N  0.97224438  0.40074401  0.15046840     0.74580
O1493       O  0.62019097  0.41380813  0.11909009    -0.38870
O1494       O  0.60115634  0.43306810  0.07513181    -0.38810
O1495       O  0.96697516  0.38664198  0.17644066    -0.39520
O1496       O  0.94908481  0.40937355  0.13362831    -0.39580
C1497       C  0.57648768  0.19816881  0.12964340    -0.11860
C1498       C  0.55585992  0.19665469  0.15556803     0.05140
C1499       C  0.53396756  0.17127102  0.15746238    -0.07150
C1500       C  0.53384689  0.14783199  0.13390513    -0.07890
C1501       C  0.55401265  0.14965517  0.10771981    -0.02450
C1502       C  0.57607034  0.17482185  0.10578457     0.04370
N1503       N  0.59905678  0.17623924  0.08079949     0.66880
H1504       H  0.59346779  0.21732839  0.12835374     0.15780
H1505       H  0.51665057  0.12883696  0.13515877     0.15490
N1506       N  0.51031576  0.16996658  0.18181510     0.74580
O1507       O  0.60951234  0.20275293  0.07150075    -0.38870
O1508       O  0.61247790  0.15118321  0.07154573    -0.38810
O1509       O  0.99389403  0.19420593  0.18782989    -0.39520
O1510       O  0.50237035  0.14353768  0.19358995    -0.39580
C1511       C  0.52474165  0.42720872  0.38165390    -0.11860
C1512       C  0.55269399  0.43962448  0.39400089     0.05140
C1513       C  0.58204463  0.42913824  0.38196332    -0.07150
C1514       C  0.58229630  0.40661398  0.35724043    -0.07890
C1515       C  0.55419646  0.39450731  0.34467696    -0.02450
C1516       C  0.52495470  0.40504304  0.35689240     0.04370
N1517       N  0.99531965  0.39350959  0.34473530     0.66880
H1518       H  0.00245083  0.43539244  0.39105182     0.15780
H1519       H  0.60449165  0.39789126  0.34814295     0.15490
N1520       N  0.61154309  0.44049244  0.39465056     0.74580
O1521       O  0.97165016  0.39198630  0.36275376    -0.38870
O1522       O  0.99146954  0.38886959  0.31534466    -0.38810
O1523       O  0.61371771  0.44945342  0.42317631    -0.39520
O1524       O  0.63631141  0.43878805  0.37823562    -0.39580
C1525       C  0.50905099  0.19337418  0.36690311    -0.11860
C1526       C  0.53571263  0.20007949  0.34859687     0.05140
C1527       C  0.56369900  0.18239953  0.35345972    -0.07150
C1528       C  0.56414220  0.15825218  0.37640349    -0.07890
C1529       C  0.53765595  0.15158040  0.39486441    -0.02450
C1530       C  0.50935412  0.16884836  0.38980665     0.04370
N1531       N  0.98066752  0.16122572  0.40649278     0.66880
H1532       H  0.98766451  0.20672269  0.36251020     0.15780
H1533       H  0.58567872  0.14501612  0.38053172     0.15490
N1534       N  0.59201468  0.18899548  0.33587664     0.74580
O1535       O  0.95819236  0.18085709  0.40695217    -0.38870
O1536       O  0.97608043  0.13370731  0.41753249    -0.38810
O1537       O  0.60011194  0.21727324  0.33005309    -0.39520
O1538       O  0.61097234  0.16680470  0.32955616    -0.39580
C1539       C  0.92522259  0.06349735  0.16243115    -0.11860
C1540       C  0.89305134  0.06514821  0.15387984     0.05140
C1541       C  0.88576849  0.06200365  0.12080003    -0.07150
C1542       C  0.90988917  0.05862012  0.09838192    -0.07890
C1543       C  0.94152426  0.05539316  0.10742847    -0.02450
C1544       C  0.94894027  0.05699807  0.14024049     0.04370
N1545       N  0.97988270  0.04985942  0.15202699     0.66880
H1546       H  0.93264211  0.06529265  0.18685382     0.15780
H1547       H  0.90333406  0.05684921  0.07351900     0.15490
N1548       N  0.85422762  0.05950553  0.10908014     0.74580
O1549       O  0.99279164  0.06814597  0.17191343    -0.38870
O1550       O  0.49104039  0.02233407  0.14813376    -0.38810
O1551       O  0.84425531  0.07957307  0.08906794    -0.39520
O1552       O  0.83935458  0.03380600  0.11281608    -0.39580
C1553       C  0.67802138  0.06008083  0.10224592    -0.11860
C1554       C  0.65181665  0.04037127  0.10669204     0.05140
C1555       C  0.64983617  0.02154309  0.13464504    -0.07150
C1556       C  0.67450660  0.02266596  0.15695093    -0.07890
C1557       C  0.70046753  0.04287907  0.15275112    -0.02450
C1558       C  0.70168667  0.06247681  0.12531157     0.04370
N1559       N  0.72524926  0.08669393  0.12157201     0.66880
H1560       H  0.67908332  0.07538976  0.08148396     0.15780
H1561       H  0.67345601  0.00742934  0.17771709     0.15490
N1562       N  0.62356458  0.50084269  0.14065178     0.74580
O1563       O  0.73685482  0.09212312  0.09449868    -0.38870
O1564       O  0.73052671  0.10604737  0.14385157    -0.38810
O1565       O  0.61037406  0.48625456  0.11812997    -0.39520
O1566       O  0.61549828  0.49451827  0.16884765    -0.39580
C1567       C  0.70583510  0.06711777  0.37820221    -0.11860
C1568       C  0.69925940  0.05599297  0.34743471     0.05140
C1569       C  0.66859519  0.04419776  0.34082174    -0.07150
C1570       C  0.64555291  0.04463233  0.36453096    -0.07890
C1571       C  0.65233405  0.05496553  0.39547133    -0.02450
C1572       C  0.68297545  0.06656851  0.40223065     0.04370
N1573       N  0.69122703  0.07861744  0.43300429     0.66880
H1574       H  0.72884561  0.07674205  0.38367935     0.15780
H1575       H  0.62254614  0.03490253  0.35909258     0.15490
N1576       N  0.66087457  0.02943379  0.31106052     0.74580
O1577       O  0.71684628  0.07042030  0.44593774    -0.38870
O1578       O  0.67559166  0.10112236  0.44484681    -0.38810
O1579       O  0.67703804  0.00631733  0.30121658    -0.39520
O1580       O  0.63510251  0.03583429  0.29744105    -0.39580
C1581       C  0.90940583  0.04285310  0.40130118    -0.11860
C1582       C  0.94064006  0.03517063  0.39373878     0.05140
C1583       C  0.94715439  0.02443149  0.36259378    -0.07150
C1584       C  0.92261710  0.02061166  0.34052555    -0.07890
C1585       C  0.89137745  0.02926864  0.34761211    -0.02450
C1586       C  0.88516936  0.04130832  0.37859020     0.04370
N1587       N  0.85529103  0.05471046  0.38692105     0.66880
H1588       H  0.90394440  0.05216948  0.42463793     0.15780
H1589       H  0.92853522  0.01099479  0.31750694     0.15490
N1590       N  0.97858567  0.01780457  0.35252355     0.74580
O1591       O  0.84238727  0.04690772  0.41279517    -0.38870
O1592       O  0.84495180  0.07849408  0.37178593    -0.38810
O1593       O  0.49231074  0.99292170  0.36196463    -0.39520
O1594       O  0.99114591  0.03476537  0.33125880    -0.39580
C1595       C  0.66958639  0.38475639  0.48224300    -0.11860
C1596       C  0.70164657  0.39406048  0.98153132     0.05140
C1597       C  0.70784513  0.42706350  0.98634107    -0.07150
C1598       C  0.68313186  0.44853111  0.99119862    -0.07890
C1599       C  0.65160052  0.43878251  0.99263241    -0.02450
C1600       C  0.64500421  0.40616445  0.48825346     0.04370
N1601       N  0.61368754  0.39376699  0.99082206     0.66880
H1602       H  0.66273216  0.36025770  0.47990432     0.15780
H1603       H  0.68911133  0.47333555  0.99450104     0.15490
N1604       N  0.73889552  0.43986763  0.48779532     0.74580
O1605       O  0.60245964  0.37719443  0.46853409    -0.38870
O1606       O  0.60026917  0.39343508  0.01755712    -0.38810
O1607       O  0.74945936  0.45511529  0.46424567    -0.39520
O1608       O  0.75235685  0.44254706  0.01446481    -0.39580
C1609       C  0.66819634  0.20725256  0.00334593    -0.11860
C1610       C  0.69988289  0.19861426  0.00930000     0.05140
C1611       C  0.70641400  0.16533984  0.51152411    -0.07150
C1612       C  0.68192998  0.14314058  0.51014202    -0.07890
C1613       C  0.65081047  0.15208936  0.00366037    -0.02450
C1614       C  0.64416977  0.18475790  0.99940626     0.04370
N1615       N  0.61385030  0.19568322  0.98884904     0.66880
H1616       H  0.66165741  0.23162823  0.99909291     0.15780
H1617       H  0.68788261  0.11822158  0.51271901     0.15490
N1618       N  0.73759371  0.15267391  0.51216882     0.74580
O1619       O  0.60134333  0.21948811  0.00192317    -0.38870
O1620       O  0.60289960  0.18600650  0.46265402    -0.38810
O1621       O  0.74676516  0.13711515  0.03617820    -0.39520
O1622       O  0.75261054  0.15024141  0.48642981    -0.39580
C1623       C  0.90960599  0.14360942  0.49831351    -0.11860
C1624       C  0.94130861  0.15210336  0.99475767     0.05140
C1625       C  0.94861088  0.18418305  0.98771597    -0.07150
C1626       C  0.92433308  0.20627333  0.98326135    -0.07890
C1627       C  0.89261935  0.19841228  0.98909152    -0.02450
C1628       C  0.88553484  0.16626043  0.49696910     0.04370
N1629       N  0.85468560  0.15625266  0.50634496     0.66880
H1630       H  0.90339667  0.11934479  0.50428109     0.15780
H1631       H  0.93095951  0.23015587  0.97663149     0.15490
N1632       N  0.98042626  0.19542630  0.98697925     0.74580
O1633       O  0.84199002  0.13279686  0.49274312    -0.38870
O1634       O  0.84308838  0.16645005  0.03196115    -0.38810
O1635       O  0.49118060  0.20776464  0.46188828    -0.39520
O1636       O  0.99497162  0.19956838  0.01287281    -0.39580
C1637       C  0.88817537  0.42148576  0.02657232    -0.11860
C1638       C  0.89361490  0.39110895  0.01400020     0.05140
C1639       C  0.92285876  0.38508606  0.49886649    -0.07150
C1640       C  0.94576636  0.40897482  0.49753528    -0.07890
C1641       C  0.94002697  0.43951835  0.00939210    -0.02450
C1642       C  0.91078753  0.44568990  0.02432361     0.04370
N1643       N  0.90381957  0.47600484  0.03809944     0.66880
H1644       H  0.86627007  0.42649656  0.03864552     0.15780
H1645       H  0.96770156  0.40402103  0.48544086     0.15490
N1646       N  0.92902859  0.35581339  0.48258700     0.74580
O1647       O  0.87758872  0.48909171  0.03271281    -0.38870
O1648       O  0.92160472  0.98726168  0.05934872    -0.38810
O1649       O  0.91056788  0.34648429  0.46095397    -0.39520
O1650       O  0.95536228  0.34227995  0.98590390    -0.39580
C1651       C  0.86800116  0.36683527  0.51460624     0.03530
C1652       C  0.87518938  0.33392575  0.51867800    -0.12620
C1653       C  0.85396021  0.31134039  0.50687401     0.01030
C1654       C  0.82816433  0.32290398  0.99011479    -0.11200
C1655       C  0.81507006  0.35219195  0.99760217     0.03530
C1656       C  0.83606985  0.37564443  0.00817221    -0.10560
H1657       H  0.89737820  0.32632155  0.52889949     0.09120
H1658       H  0.81478410  0.30674443  0.97643756     0.06650
H1659       H  0.82809044  0.39997676  0.00995350     0.06500
C1660       C  0.86840777  0.22436350  0.49119333     0.03530
C1661       C  0.87703101  0.25589114  0.50014044    -0.12620
C1662       C  0.85417259  0.27618482  0.51263719     0.01030
C1663       C  0.82504401  0.26250888  0.52013654    -0.11140
C1664       C  0.81356279  0.23767315  0.50147931     0.03530
C1665       C  0.83577876  0.21804980  0.48672303    -0.10560
H1666       H  0.90074271  0.26481299  0.49802590     0.09120
H1667       H  0.80919785  0.27517534  0.53514500     0.06650
H1668       H  0.82784476  0.19770659  0.47322323     0.06500
C1669       C  0.72503979  0.22432939  0.50816414     0.03530
C1670       C  0.75783058  0.21742657  0.50931833    -0.12620
C1671       C  0.77915471  0.23760653  0.49402334     0.01030
C1672       C  0.76670293  0.26422125  0.47843573    -0.11140
C1673       C  0.73886193  0.27785985  0.48978682     0.03530
C1674       C  0.71705312  0.25712633  0.50381015    -0.10560
H1675       H  0.76726247  0.19786034  0.52283009     0.09120
H1676       H  0.78087296  0.27731426  0.46201587     0.06650
H1677       H  0.69489445  0.26681093  0.51170792     0.06500
C1678       C  0.72708165  0.36845296  0.48093927     0.03530
C1679       C  0.75996060  0.37534494  0.48437447    -0.12620
C1680       C  0.77970000  0.35295159  0.49908217     0.01030
C1681       C  0.76530344  0.32541535  0.51062762    -0.11140
C1682       C  0.73917977  0.31317694  0.49492881     0.03530
C1683       C  0.71888562  0.33533096  0.48066399    -0.10560
H1684       H  0.77059214  0.39657112  0.47504730     0.09120
H1685       H  0.77819522  0.31021163  0.52612472     0.06650
H1686       H  0.69752732  0.32657065  0.46987529     0.06500
C1687       C  0.86670986  0.02888258  0.82176657     0.03530
C1688       C  0.83385753  0.02590604  0.82903534    -0.12620
C1689       C  0.81163507  0.03856271  0.80761457     0.01030
C1690       C  0.82371496  0.05425815  0.78126758    -0.11140
C1691       C  0.85208911  0.04513941  0.76785562     0.03530
C1692       C  0.87518539  0.03437183  0.78916544    -0.10560
H1693       H  0.82601579  0.01566396  0.85126892     0.09120
H1694       H  0.80847154  0.06879974  0.76781400     0.06650
H1695       H  0.89900484  0.03197550  0.78065144     0.06500
C1696       C  0.72477384  0.05486460  0.82312366     0.03530
C1697       C  0.75617238  0.04594059  0.83151551    -0.12620
C1698       C  0.77632680  0.03473461  0.80765578     0.01030
C1699       C  0.76247914  0.02907730  0.77784751    -0.11140
C1700       C  0.73776777  0.04830082  0.76722926     0.03530
C1701       C  0.71786490  0.06081428  0.79049281    -0.10560
H1702       H  0.76456005  0.04693136  0.85580815     0.09120
H1703       H  0.77482585  0.01498623  0.76100921     0.06650
H1704       H  0.69672892  0.07342122  0.78345786     0.06500
C1705       C  0.72493208  0.04510902  0.67799371     0.03530
C1706       C  0.71627707  0.04625150  0.71057207    -0.12620
C1707       C  0.73787460  0.05786855  0.73286386     0.01030
C1708       C  0.76559625  0.07137673  0.72091244    -0.11140
C1709       C  0.77838964  0.06040071  0.69227585     0.03530
C1710       C  0.75730591  0.04770483  0.66999607    -0.10560
H1711       H  0.69312819  0.03902460  0.71844031     0.09120
H1712       H  0.77925956  0.08682738  0.73562194     0.06650
H1713       H  0.76559487  0.04092397  0.64664943     0.06500
C1714       C  0.86816544  0.06517313  0.67981450     0.03530
C1715       C  0.87586698  0.05779190  0.71234649    -0.12620
C1716       C  0.85273602  0.04446224  0.73199171     0.01030
C1717       C  0.82468952  0.03562248  0.71701363    -0.11140
C1718       C  0.81309123  0.05400018  0.69205498     0.03530
C1719       C  0.83543855  0.06925669  0.67282833    -0.10560
H1720       H  0.89880183  0.06180399  0.72256777     0.09120
H1721       H  0.80915661  0.01981686  0.72891964     0.06650
H1722       H  0.82740117  0.08345844  0.65298211     0.06500
C1723       C  0.53427969  0.22472876  0.82362792     0.03530
C1724       C  0.53514365  0.25751916  0.83185431    -0.12620
C1725       C  0.54665264  0.27932005  0.80936078     0.01030
C1726       C  0.55962207  0.26646875  0.78175038    -0.11140
C1727       C  0.54842490  0.23787469  0.76929226     0.03530
C1728       C  0.53701209  0.21565008  0.79121392    -0.10560
H1729       H  0.52845061  0.26543623  0.85535365     0.09120
H1730       H  0.57415310  0.28104824  0.76741280     0.06650
H1731       H  0.53158167  0.19167153  0.78371110     0.06500
C1732       C  0.55520706  0.36920759  0.82052836     0.03530
C1733       C  0.55289427  0.33689361  0.83025188    -0.12620
C1734       C  0.54090543  0.31462850  0.80864929     0.01030
C1735       C  0.52861676  0.32682350  0.78022977    -0.11140
C1736       C  0.54100522  0.35441768  0.76655328     0.03530
C1737       C  0.55336610  0.37704875  0.78762227    -0.10560
H1738       H  0.55915250  0.32969983  0.85419987     0.09120
H1739       H  0.51333006  0.31241954  0.76650134     0.06650
H1740       H  0.55967695  0.40050855  0.77914886     0.06500
C1741       C  0.55600333  0.22235015  0.67963233     0.03530
C1742       C  0.55561273  0.21477803  0.71269049    -0.12620
C1743       C  0.54332671  0.23710686  0.73393878     0.01030
C1744       C  0.52971704  0.26419385  0.72051704    -0.11140
C1745       C  0.54096946  0.27668440  0.69196250     0.03530
C1746       C  0.55290271  0.25473484  0.67003788    -0.10560
H1747       H  0.56309211  0.19166040  0.72119869     0.09120
H1748       H  0.51454255  0.27823061  0.73459684     0.06650
H1749       H  0.55818512  0.26223351  0.64599152     0.06500
C1750       C  0.52844103  0.36564561  0.67692273     0.03530
C1751       C  0.53165043  0.37515394  0.70921310    -0.12620
C1752       C  0.54515910  0.35385207  0.73102732     0.01030
C1753       C  0.55784095  0.32596934  0.71841302    -0.11140
C1754       C  0.54502659  0.31218775  0.69104728     0.03530
C1755       C  0.53150159  0.33301511  0.66881690    -0.10560
H1756       H  0.52518346  0.39887601  0.71664837     0.09120
H1757       H  0.57377945  0.31247348  0.73243168     0.06650
H1758       H  0.52491255  0.32457579  0.64542169     0.06500
O1759       O  0.95564993  0.49363964  0.50428083    -0.79730
O1760       O  0.63546173  0.49279428  0.49781824    -0.81280
O1761       O  0.54711878  0.45465506  0.94766844    -0.78300
O1762       O  0.54434377  0.45337411  0.55141023    -0.76680
O1763       O  0.54278259  0.49125623  0.59047332    -0.78480
O1764       O  0.55065993  0.49347642  0.90943645    -0.79410
O1765       O  0.59753931  0.45449284  0.49794789    -0.80730
O1766       O  0.99349134  0.45509333  0.50260795    -0.81020
Eu1767     Eu  0.54573578  0.48062120  0.49992936     2.39200
O1768       O  0.57817971  0.01197945  0.53284633    -0.88530
O1769       O  0.51379913  0.01307805  0.96766791    -0.92140
C1770       C  0.96456694  0.46435721  0.50508652     1.02550
C1771       C  0.62656486  0.46345260  0.49675639     1.02370
C1772       C  0.55008396  0.46417916  0.91862969     1.02320
C1773       C  0.54268779  0.46215396  0.58069717     1.00170
H1774       H  0.59133143  0.00064357  0.95480221     0.29920
O1775       O  0.57789610  0.01330442  0.96817804    -1.00920
H1776       H  0.50139262  0.99971866  0.54620435     0.29960
O1777       O  0.51426964  0.01281939  0.53253088    -1.03460
O1778       O  0.63516842  0.09761280  0.50231987    -0.80690
O1779       O  0.95661433  0.09766935  0.49742222    -0.80230
O1780       O  0.59853021  0.05076841  0.91084234    -0.78660
O1781       O  0.59783910  0.04216935  0.59163604    -0.82000
O1782       O  0.99503835  0.04987556  0.59093982    -0.79860
O1783       O  0.99456842  0.04102097  0.90948577    -0.78510
O1784       O  0.54229941  0.13596576  0.94872874    -0.80030
O1785       O  0.54914994  0.13510006  0.55338123    -0.81950
O1786       O  0.54230316  0.09780588  0.90988798    -0.78690
O1787       O  0.54954584  0.09612921  0.59156554    -0.81370
O1788       O  0.63645110  0.04904947  0.94944952    -0.77100
O1789       O  0.95665467  0.04074503  0.94785970    -0.77130
O1790       O  0.95668119  0.04955761  0.55294382    -0.76780
O1791       O  0.63558457  0.04249179  0.55295673    -0.80270
O1792       O  0.59710477  0.13575234  0.50119984    -0.79700
O1793       O  0.99475613  0.13565933  0.50001871    -0.78030
Eu1794     Eu  0.60976158  0.04503430  0.50078445     2.39770
Eu1795     Eu  0.98209367  0.04522736  0.50046404     2.39570
Eu1796     Eu  0.54623782  0.04551572  0.93574261     2.38400
Eu1797     Eu  0.54630325  0.04426828  0.56512836     2.39880
Eu1798     Eu  0.54595427  0.10928987  0.50089002     2.39790
O1799       O  0.51408565  0.07710416  0.53321273    -0.92440
O1800       O  0.57807842  0.07773690  0.96831421    -0.91330
C1801       C  0.62611547  0.12694191  0.50203337     1.02730
C1802       C  0.96579684  0.12694633  0.49777639     1.01450
C1803       C  0.62756208  0.05156347  0.92021098     1.00840
C1804       C  0.62672209  0.04149135  0.58226940     1.02850
C1805       C  0.96596490  0.05116123  0.58223016     1.01770
C1806       C  0.96560227  0.03926261  0.91852716     1.00610
C1807       C  0.54087591  0.12687736  0.91944854     1.00670
C1808       C  0.55071396  0.12545684  0.58255658     1.03290
H1809       H  0.50072675  0.08990241  0.95500223     0.30660
O1810       O  0.51420290  0.07706870  0.96832782    -1.04600
H1811       H  0.59144555  0.08958206  0.54636741     0.32710
O1812       O  0.57799372  0.07673990  0.53306169    -1.07170
C1813       C  0.56013764  0.39565901  0.63907140    -0.11860
C1814       C  0.53011682  0.38988826  0.65161983     0.05140
C1815       C  0.50394253  0.40716559  0.63999210    -0.07150
C1816       C  0.50916291  0.43082748  0.61681520    -0.07890
C1817       C  0.53935958  0.43684854  0.60464790    -0.02450
C1818       C  0.56522426  0.41844652  0.61527878     0.04370
N1819       N  0.59663152  0.42250361  0.60285405     0.66880
H1820       H  0.57987974  0.38181893  0.64786069     0.15780
H1821       H  0.98948653  0.44472921  0.60799730     0.15490
N1822       N  0.97224335  0.40074431  0.65046820     0.74580
O1823       O  0.62019150  0.41380752  0.61908815    -0.38870
O1824       O  0.60115634  0.43306799  0.57513033    -0.38810
O1825       O  0.96697398  0.38664185  0.67644020    -0.39520
O1826       O  0.94908385  0.40937427  0.63362821    -0.39580
C1827       C  0.57648838  0.19816859  0.62964333    -0.11860
C1828       C  0.55586052  0.19665478  0.65556790     0.05140
C1829       C  0.53396772  0.17127147  0.65746212    -0.07150
C1830       C  0.53384682  0.14783242  0.63390488    -0.07890
C1831       C  0.55401274  0.14965526  0.60771966    -0.02450
C1832       C  0.57607078  0.17482164  0.60578449     0.04370
N1833       N  0.59905729  0.17623873  0.58079947     0.66880
H1834       H  0.59346879  0.21732791  0.62835374     0.15780
H1835       H  0.51665023  0.12883764  0.63515843     0.15490
N1836       N  0.51031573  0.16996746  0.68181467     0.74580
O1837       O  0.60951312  0.20275229  0.57150067    -0.38870
O1838       O  0.61247816  0.15118253  0.57154578    -0.38810
O1839       O  0.99389448  0.19420564  0.68783038    -0.39520
O1840       O  0.50236958  0.14353868  0.69358929    -0.39580
C1841       C  0.52474114  0.42720881  0.88165435    -0.11860
C1842       C  0.55269355  0.43962441  0.89400138     0.05140
C1843       C  0.58204412  0.42913808  0.88196376    -0.07150
C1844       C  0.58229569  0.40661389  0.85724080    -0.07890
C1845       C  0.55419580  0.39450735  0.84467730    -0.02450
C1846       C  0.52495408  0.40504318  0.85689279     0.04370
N1847       N  0.99531925  0.39350990  0.84473541     0.66880
H1848       H  0.00245066  0.43539269  0.89105194     0.15780
H1849       H  0.60449100  0.39789111  0.84814328     0.15490
N1850       N  0.61154263  0.44049212  0.89465101     0.74580
O1851       O  0.97164998  0.39198616  0.86275411    -0.38870
O1852       O  0.99146887  0.38887040  0.81534473    -0.38810
O1853       O  0.61371736  0.44945279  0.92317685    -0.39520
O1854       O  0.63631090  0.43878786  0.87823597    -0.39580
C1855       C  0.50905108  0.19337397  0.86690289    -0.11860
C1856       C  0.53571278  0.20007941  0.84859678     0.05140
C1857       C  0.56369922  0.18239959  0.85345983    -0.07150
C1858       C  0.56414241  0.15825229  0.87640366    -0.07890
C1859       C  0.53765609  0.15158038  0.89486443    -0.02450
C1860       C  0.50935420  0.16884819  0.88980647     0.04370
N1861       N  0.98066754  0.16122607  0.90649291     0.66880
H1862       H  0.98766457  0.20672307  0.86251034     0.15780
H1863       H  0.58567898  0.14501635  0.88053203     0.15490
N1864       N  0.59201497  0.18899568  0.83587693     0.74580
O1865       O  0.95819242  0.18085748  0.90695229    -0.38870
O1866       O  0.97608039  0.13370768  0.91753265    -0.38810
O1867       O  0.60011210  0.21727347  0.83005337    -0.39520
O1868       O  0.61097281  0.16680500  0.82955663    -0.39580
C1869       C  0.92522215  0.06349583  0.66243125    -0.11860
C1870       C  0.89305100  0.06514840  0.65387970     0.05140
C1871       C  0.88576842  0.06200533  0.62079967    -0.07150
C1872       C  0.90988919  0.05862159  0.59838170    -0.07890
C1873       C  0.94152408  0.05539326  0.60742844    -0.02450
C1874       C  0.94893984  0.05699677  0.64024055     0.04370
N1875       N  0.97988202  0.04985699  0.65202705     0.66880
H1876       H  0.93264157  0.06528942  0.68685405     0.15780
H1877       H  0.90333425  0.05685182  0.57351865     0.15490
N1878       N  0.85422763  0.05950900  0.60907922     0.74580
O1879       O  0.99279123  0.06814254  0.67191425    -0.38870
O1880       O  0.49103955  0.02233190  0.64813267    -0.38810
O1881       O  0.84425601  0.07957862  0.58906878    -0.39520
O1882       O  0.83935411  0.03380936  0.61281242    -0.39580
C1883       C  0.67802133  0.06007998  0.60224594    -0.11860
C1884       C  0.65181636  0.04037075  0.60669204     0.05140
C1885       C  0.64983561  0.02154261  0.63464504    -0.07150
C1886       C  0.67450603  0.02266515  0.65695095    -0.07890
C1887       C  0.70046722  0.04287790  0.65275114    -0.02450
C1888       C  0.70168662  0.06247566  0.62531162     0.04370
N1889       N  0.72524946  0.08669255  0.62157214     0.66880
H1890       H  0.67908348  0.07538891  0.58148399     0.15780
H1891       H  0.67345522  0.00742857  0.67771713     0.15490
N1892       N  0.62356209  0.50084210  0.64065152     0.74580
O1893       O  0.73685509  0.09212169  0.59449883    -0.38870
O1894       O  0.73052706  0.10604590  0.64385173    -0.38810
O1895       O  0.61037145  0.48625406  0.61812972    -0.39520
O1896       O  0.61549510  0.49451843  0.66884735    -0.39580
C1897       C  0.70583489  0.06711824  0.87820205    -0.11860
C1898       C  0.69925920  0.05599323  0.84743462     0.05140
C1899       C  0.66859505  0.04419777  0.84082178    -0.07150
C1900       C  0.64555283  0.04463230  0.86453105    -0.07890
C1901       C  0.65233398  0.05496567  0.89547135    -0.02450
C1902       C  0.68297530  0.06656890  0.90223055     0.04370
N1903       N  0.69122686  0.07861799  0.93300414     0.66880
H1904       H  0.72884533  0.07674272  0.88367910     0.15780
H1905       H  0.62254611  0.03490232  0.85909277     0.15490
N1906       N  0.66087445  0.02943358  0.81106066     0.74580
O1907       O  0.71684622  0.07042110  0.94593753    -0.38870
O1908       O  0.67559132  0.10112278  0.94484665    -0.38810
O1909       O  0.67703794  0.00631705  0.80121691    -0.39520
O1910       O  0.63510239  0.03583395  0.79744115    -0.39580
C1911       C  0.90940582  0.04285324  0.90130120    -0.11860
C1912       C  0.94064003  0.03517079  0.89373870     0.05140
C1913       C  0.94715431  0.02443179  0.86259364    -0.07150
C1914       C  0.92261700  0.02061214  0.84052543    -0.07890
C1915       C  0.89137738  0.02926916  0.84761207    -0.02450
C1916       C  0.88516933  0.04130863  0.87859025     0.04370
N1917       N  0.85529101  0.05471072  0.88692123     0.66880
H1918       H  0.90394442  0.05216949  0.92463801     0.15780
H1919       H  0.92853507  0.01099540  0.81750675     0.15490
N1920       N  0.97858556  0.01780487  0.85252335     0.74580
O1921       O  0.84238723  0.04690770  0.91279526    -0.38870
O1922       O  0.84495182  0.07849452  0.87178638    -0.38810
O1923       O  0.49231140  0.99292285  0.86196609    -0.39520
O1924       O  0.99114593  0.03476596  0.83125891    -0.39580
C1925       C  0.66958648  0.38475623  0.98224388    -0.11860
C1926       C  0.70164653  0.39406051  0.48153102     0.05140
C1927       C  0.70784515  0.42706347  0.48634118    -0.07150
C1928       C  0.68313188  0.44853114  0.49119857    -0.07890
C1929       C  0.65160050  0.43878262  0.49263190    -0.02450
C1930       C  0.64500429  0.40616427  0.98825436     0.04370
N1931       N  0.61368740  0.39376724  0.49082072     0.66880
H1932       H  0.66273232  0.36025747  0.97990568     0.15780
H1933       H  0.68911138  0.47333553  0.49450132     0.15490
N1934       N  0.73889546  0.43986783  0.98779449     0.74580
O1935       O  0.60245966  0.37719381  0.96853577    -0.38870
O1936       O  0.60026886  0.39343491  0.51755569    -0.38810
O1937       O  0.74945913  0.45511449  0.96424412    -0.39520
O1938       O  0.75235680  0.44254565  0.51446582    -0.39580
C1939       C  0.66819632  0.20725257  0.50334583    -0.11860
C1940       C  0.69988286  0.19861427  0.50930001     0.05140
C1941       C  0.70641406  0.16533984  0.01152405    -0.07150
C1942       C  0.68193006  0.14314057  0.01014203    -0.07890
C1943       C  0.65081041  0.15208938  0.50366028    -0.02450
C1944       C  0.64416974  0.18475793  0.49940614     0.04370
N1945       N  0.61385028  0.19568327  0.48884891     0.66880
H1946       H  0.66165743  0.23162824  0.49909277     0.15780
H1947       H  0.68788270  0.11822157  0.01271899     0.15490
N1948       N  0.73759380  0.15267393  0.01216857     0.74580
O1949       O  0.60134331  0.21948815  0.50192306    -0.38870
O1950       O  0.60289962  0.18600644  0.96265414    -0.38810
O1951       O  0.74676497  0.13711526  0.53617858    -0.39520
O1952       O  0.75261054  0.15024162  0.98642949    -0.39580
C1953       C  0.90960595  0.14360939  0.99831345    -0.11860
C1954       C  0.94130865  0.15210341  0.49475784     0.05140
C1955       C  0.94861094  0.18418311  0.48771635    -0.07150
C1956       C  0.92433320  0.20627345  0.48326183    -0.07890
C1957       C  0.89261942  0.19841238  0.48909182    -0.02450
C1958       C  0.88553479  0.16626037  0.99696896     0.04370
N1959       N  0.85468555  0.15625262  0.00634484     0.66880
H1960       H  0.90339665  0.11934478  0.00428114     0.15780
H1961       H  0.93095971  0.23015600  0.47663212     0.15490
N1962       N  0.98042634  0.19542628  0.48697984     0.74580
O1963       O  0.84198995  0.13279684  0.99274301    -0.38870
O1964       O  0.84308842  0.16645005  0.53196127    -0.38810
O1965       O  0.49118214  0.20776144  0.96188826    -0.39520
O1966       O  0.99497101  0.19956993  0.51287353    -0.39580
C1967       C  0.88817520  0.42148590  0.52657231    -0.11860
C1968       C  0.89361476  0.39110907  0.51400026     0.05140
C1969       C  0.92285888  0.38508597  0.99886638    -0.07150
C1970       C  0.94576649  0.40897474  0.99753520    -0.07890
C1971       C  0.94002680  0.43951847  0.50939208    -0.02450
C1972       C  0.91078735  0.44569004  0.52432356     0.04370
N1973       N  0.90381932  0.47600505  0.53809923     0.66880
H1974       H  0.86626988  0.42649672  0.53864545     0.15780
H1975       H  0.96770168  0.40402097  0.98544075     0.15490
N1976       N  0.92902868  0.35581334  0.98258683     0.74580
O1977       O  0.87758845  0.48909184  0.53271251    -0.38870
O1978       O  0.92160463  0.98726184  0.55934889    -0.38810
O1979       O  0.91056791  0.34648425  0.96095385    -0.39520
O1980       O  0.95536218  0.34228002  0.48590415    -0.39580
C1981       C  0.86799556  0.86683575  0.01460575     0.03530
C1982       C  0.87518543  0.83392627  0.01867595    -0.12620
C1983       C  0.85395752  0.81134033  0.00687050     0.01030
C1984       C  0.82816006  0.82290424  0.49011307    -0.11200
C1985       C  0.81506478  0.85219173  0.49760200     0.03530
C1986       C  0.83606365  0.87564411  0.50817320    -0.10560
H1987       H  0.89737482  0.82632271  0.02889664     0.09120
H1988       H  0.81477994  0.80674488  0.47643556     0.06650
H1989       H  0.82808327  0.89997602  0.50995561     0.06500
C1990       C  0.86840772  0.72435999  0.99119457     0.03530
C1991       C  0.87703025  0.75588929  0.00013829    -0.12620
C1992       C  0.85417104  0.77618415  0.01263285     0.01030
C1993       C  0.82504293  0.76250821  0.02013273    -0.11140
C1994       C  0.81356211  0.73767214  0.00147625     0.03530
C1995       C  0.83577857  0.71804601  0.98672387    -0.10560
H1996       H  0.90074182  0.76481129  0.99802321     0.09120
H1997       H  0.80919665  0.77517503  0.03514062     0.06650
H1998       H  0.82784475  0.69770145  0.97322604     0.06500
C1999       C  0.72504010  0.72433008  0.00816509     0.03530
C2000       C  0.75783069  0.71742739  0.00931811    -0.12620
C2001       C  0.77915394  0.73760587  0.99402042     0.01030
C2002       C  0.76670126  0.76422058  0.97843273    -0.11140
C2003       C  0.73885990  0.77785912  0.98978414     0.03530
C2004       C  0.71705269  0.75712630  0.00381002    -0.10560
H2005       H  0.76726316  0.69786245  0.02283138     0.09120
H2006       H  0.78087054  0.77731325  0.96201186     0.06650
H2007       H  0.69489460  0.76681110  0.01170923     0.06500
C2008       C  0.72707460  0.86845265  0.98094447     0.03530
C2009       C  0.75995368  0.87534568  0.98437958    -0.12620
C2010       C  0.77969478  0.85295088  0.99908325     0.01030
C2011       C  0.76529951  0.82541371  0.01062692    -0.11140
C2012       C  0.73917663  0.81317577  0.99492722     0.03530
C2013       C  0.71888020  0.83533023  0.98066620    -0.10560
H2014       H  0.77058426  0.89657348  0.97505516     0.09120
H2015       H  0.77819188  0.81020929  0.02612273     0.06650
H2016       H  0.69752156  0.82657001  0.96987809     0.06500
C2017       C  0.86671488  0.52888548  0.32177079     0.03530
C2018       C  0.83386240  0.52590829  0.32903855    -0.12620
C2019       C  0.81164030  0.53856315  0.30761638     0.01030
C2020       C  0.82372062  0.55425821  0.28126944    -0.11140
C2021       C  0.85209556  0.54514017  0.26785879     0.03530
C2022       C  0.87519148  0.53437449  0.28916985    -0.10560
H2023       H  0.82602017  0.51566653  0.35127208     0.09120
H2024       H  0.80847710  0.56879862  0.26781479     0.06650
H2025       H  0.89901128  0.53197909  0.28065665     0.06500
C2026       C  0.72477887  0.55486485  0.32312247     0.03530
C2027       C  0.75617692  0.54594015  0.33151551    -0.12620
C2028       C  0.77633212  0.53473421  0.30765649     0.01030
C2029       C  0.76248535  0.52907713  0.27784772    -0.11140
C2030       C  0.73777503  0.54830156  0.26722860     0.03530
C2031       C  0.71787127  0.56081489  0.29049144    -0.10560
H2032       H  0.76456372  0.54693065  0.35580847     0.09120
H2033       H  0.77483213  0.51498547  0.26100998     0.06650
H2034       H  0.69673575  0.57342221  0.28345578     0.06500
C2035       C  0.72494245  0.54510895  0.17799293     0.03530
C2036       C  0.71628644  0.54625178  0.21057092    -0.12620
C2037       C  0.73788306  0.55786947  0.23286325     0.01030
C2038       C  0.76560489  0.57137809  0.22091253    -0.11140
C2039       C  0.77839930  0.56040193  0.19227635     0.03530
C2040       C  0.75731641  0.54770542  0.16999616    -0.10560
H2041       H  0.69313744  0.53902452  0.21843847     0.09120
H2042       H  0.77926750  0.58682934  0.23562219     0.06650
H2043       H  0.76560614  0.54092445  0.14664984     0.06500
C2044       C  0.86817571  0.56516975  0.17981741     0.03530
C2045       C  0.87587605  0.55778936  0.21234989    -0.12620
C2046       C  0.85274375  0.54446196  0.23199493     0.01030
C2047       C  0.82469750  0.53562282  0.21701610    -0.11140
C2048       C  0.81310069  0.55400046  0.19205685     0.03530
C2049       C  0.83544925  0.56925476  0.17283001    -0.10560
H2050       H  0.89881093  0.56180016  0.22257163     0.09120
H2051       H  0.80916362  0.51981816  0.22892190     0.06650
H2052       H  0.82741314  0.58345594  0.15298287     0.06500
C2053       C  0.53428010  0.72472866  0.32363006     0.03530
C2054       C  0.53514479  0.75751901  0.33185666    -0.12620
C2055       C  0.54665343  0.77931988  0.30936288     0.01030
C2056       C  0.55962215  0.76646860  0.28175212    -0.11140
C2057       C  0.54842439  0.73787481  0.26929399     0.03530
C2058       C  0.53701170  0.71565021  0.29121586    -0.10560
H2059       H  0.52845246  0.76543605  0.35535622     0.09120
H2060       H  0.57415275  0.78104817  0.26741414     0.06650
H2061       H  0.53158082  0.69167179  0.28371301     0.06500
C2062       C  0.55520761  0.86920724  0.32053122     0.03530
C2063       C  0.55289491  0.83689324  0.33025450    -0.12620
C2064       C  0.54090657  0.81462837  0.30865149     0.01030
C2065       C  0.52861831  0.82682369  0.28023190    -0.11140
C2066       C  0.54100666  0.85441817  0.26655588     0.03530
C2067       C  0.55336717  0.87704892  0.28762529    -0.10560
H2068       H  0.55915255  0.82969931  0.35420261     0.09120
H2069       H  0.51333189  0.81241990  0.26650312     0.06650
H2070       H  0.55967775  0.90050898  0.27915238     0.06500
C2071       C  0.55600318  0.72235153  0.17963354     0.03530
C2072       C  0.55561219  0.71477887  0.21269166    -0.12620
C2073       C  0.54332601  0.73710733  0.23394038     0.01030
C2074       C  0.52971660  0.76419468  0.22051897    -0.11140
C2075       C  0.54096926  0.77668570  0.19196468     0.03530
C2076       C  0.55290267  0.75473646  0.17003978    -0.10560
H2077       H  0.56309166  0.69166115  0.22119953     0.09120
H2078       H  0.51454162  0.77823099  0.23459870     0.06650
H2079       H  0.55818544  0.76223565  0.14599366     0.06500
C2080       C  0.52844064  0.86564726  0.17692570     0.03530
C2081       C  0.53165144  0.87515555  0.20921601    -0.12620
C2082       C  0.54516040  0.85385332  0.23102986     0.01030
C2083       C  0.55784165  0.82597048  0.21841516    -0.11140
C2084       C  0.54502638  0.81218912  0.19104975     0.03530
C2085       C  0.53150082  0.83301670  0.16881984    -0.10560
H2086       H  0.52518451  0.89887753  0.21665163     0.09120
H2087       H  0.57378022  0.81247430  0.23243353     0.06650
H2088       H  0.52491058  0.82457736  0.14542500     0.06500
O2089       O  0.95564642  0.99364512  0.00428906    -0.79730
O2090       O  0.63545203  0.99279179  0.99782147    -0.81280
O2091       O  0.54711314  0.95465561  0.44766508    -0.78300
O2092       O  0.54433674  0.95337108  0.05141010    -0.76680
O2093       O  0.54278526  0.99125598  0.09048236    -0.78480
O2094       O  0.55065429  0.99347727  0.40943539    -0.79410
O2095       O  0.59753203  0.95449005  0.99794604    -0.80730
O2096       O  0.99348578  0.95510236  0.00260244    -0.81020
Eu2097     Eu  0.54575169  0.98062158  0.99991144     2.39200
O2098       O  0.57818226  0.51197960  0.03284648    -0.88530
O2099       O  0.51380973  0.51307787  0.46767068    -0.92140
C2100       C  0.96456140  0.96436490  0.00508640     1.02550
C2101       C  0.62655558  0.96345014  0.99675822     1.02370
C2102       C  0.55007784  0.96418010  0.41862813     1.02320
C2103       C  0.54268458  0.96215122  0.08070153     1.00170
H2104       H  0.59133432  0.50064404  0.45480525     0.29920
O2105       O  0.57789787  0.51330246  0.46818262    -1.00920
H2106       H  0.50080440  0.49997256  0.04602771     0.29960
O2107       O  0.51408828  0.51280577  0.03255531    -1.03460
O2108       O  0.63517271  0.59761366  0.00231821    -0.80690
O2109       O  0.95661680  0.59766552  0.99742707    -0.80230
O2110       O  0.59853434  0.55076919  0.41084110    -0.78660
O2111       O  0.59784810  0.54216596  0.09163296    -0.82000
O2112       O  0.99504680  0.54987383  0.09094871    -0.79860
O2113       O  0.99457154  0.54101932  0.40949107    -0.78510
O2114       O  0.54230214  0.63596460  0.44872984    -0.80030
O2115       O  0.54915622  0.63509918  0.05338210    -0.81950
O2116       O  0.54230559  0.59780471  0.40988913    -0.78690
O2117       O  0.54955194  0.59612631  0.09156629    -0.81370
O2118       O  0.63645605  0.54905116  0.44944726    -0.77100
O2119       O  0.95665814  0.54074049  0.44786500    -0.77130
O2120       O  0.95669231  0.54955957  0.05294718    -0.76780
O2121       O  0.63559547  0.54249258  0.05295351    -0.80270
O2122       O  0.59710819  0.63575217  0.00119968    -0.79700
O2123       O  0.99475869  0.63565538  0.00001950    -0.78030
Eu2124     Eu  0.60976778  0.54503463  0.00078346     2.39770
Eu2125     Eu  0.98210435  0.54524024  0.00045107     2.39570
Eu2126     Eu  0.54624386  0.54551426  0.43574330     2.38400
Eu2127     Eu  0.54628903  0.54425158  0.06512877     2.39880
Eu2128     Eu  0.54595986  0.60928865  0.00089153     2.39790
O2129       O  0.51409640  0.57710106  0.03321309    -0.92440
O2130       O  0.57808404  0.57773732  0.46831340    -0.91330
C2131       C  0.62611893  0.62694236  0.00203226     1.02730
C2132       C  0.96579913  0.62694216  0.99777952     1.01450
C2133       C  0.62756638  0.55156519  0.42020896     1.00840
C2134       C  0.62673307  0.54149084  0.08226635     1.02850
C2135       C  0.96597492  0.55115922  0.08223611     1.01770
C2136       C  0.96560556  0.53925916  0.41853293     1.00610
C2137       C  0.54087797  0.62687619  0.41944970     1.00670
C2138       C  0.55072089  0.62545561  0.08255752     1.03290
H2139       H  0.50073275  0.58989817  0.45500582     0.30660
O2140       O  0.51421310  0.57706735  0.46832840    -1.04600
H2141       H  0.59144903  0.58957849  0.04636608     0.32710
O2142       O  0.57799587  0.57673468  0.03306295    -1.07170
C2143       C  0.56013214  0.89566234  0.13907149    -0.11860
C2144       C  0.53011268  0.88988987  0.15162225     0.05140
C2145       C  0.50393604  0.90716433  0.13999513    -0.07150
C2146       C  0.50915322  0.93082580  0.11681674    -0.07890
C2147       C  0.53935000  0.93684710  0.10464877    -0.02450
C2148       C  0.56521560  0.91844856  0.11527798     0.04370
N2149       N  0.59662161  0.92250805  0.10285016     0.66880
H2150       H  0.57987584  0.88182429  0.14785974     0.15780
H2151       H  0.98947541  0.94472542  0.10799861     0.15490
N2152       N  0.97223822  0.90073970  0.15047314     0.74580
O2153       O  0.62018310  0.91381138  0.11908139    -0.38870
O2154       O  0.60114427  0.93307492  0.07512687    -0.38810
O2155       O  0.96697199  0.88663706  0.17644572    -0.39520
O2156       O  0.94907680  0.90936612  0.13363412    -0.39580
C2157       C  0.57648989  0.69817125  0.12964419    -0.11860
C2158       C  0.55586163  0.69665647  0.15556840     0.05140
C2159       C  0.53396992  0.67127221  0.15746183    -0.07150
C2160       C  0.53385138  0.64783251  0.13390503    -0.07890
C2161       C  0.55401827  0.64965559  0.10772045    -0.02450
C2162       C  0.57607427  0.67482410  0.10578529     0.04370
N2163       N  0.59906053  0.67624367  0.08080012     0.66880
H2164       H  0.59346913  0.71733164  0.12835487     0.15780
H2165       H  0.51665572  0.62883686  0.13515833     0.15490
N2166       N  0.51031679  0.66996768  0.18181326     0.74580
O2167       O  0.60951523  0.70275828  0.07150296    -0.38870
O2168       O  0.61248249  0.65118869  0.07154480    -0.38810
O2169       O  0.99389588  0.69420626  0.18782892    -0.39520
O2170       O  0.50237049  0.64353875  0.19358740    -0.39580
C2171       C  0.52473736  0.92720783  0.38165481    -0.11860
C2172       C  0.55268885  0.93962516  0.39400158     0.05140
C2173       C  0.58204038  0.92913949  0.38196597    -0.07150
C2174       C  0.58229373  0.90661447  0.35724400    -0.07890
C2175       C  0.55419463  0.89450661  0.34468005    -0.02450
C2176       C  0.52495201  0.90504147  0.35689421     0.04370
N2177       N  0.99531754  0.89350728  0.34473601     0.66880
H2178       H  0.00244603  0.93539094  0.39105195     0.15780
H2179       H  0.60448969  0.89789229  0.34814751     0.15490
N2180       N  0.61153789  0.94049507  0.39465435     0.74580
O2181       O  0.97164764  0.89198296  0.36275387    -0.38870
O2182       O  0.99146784  0.88887022  0.31534486    -0.38810
O2183       O  0.61371071  0.94945756  0.42317975    -0.39520
O2184       O  0.63630715  0.93879086  0.37824086    -0.39580
C2185       C  0.50905186  0.69337317  0.36690510    -0.11860
C2186       C  0.53571339  0.70007903  0.34859877     0.05140
C2187       C  0.56369985  0.68239906  0.35346121    -0.07150
C2188       C  0.56414339  0.65825154  0.37640475    -0.07890
C2189       C  0.53765735  0.65157924  0.39486572    -0.02450
C2190       C  0.50935526  0.66884689  0.38980827     0.04370
N2191       N  0.98066871  0.66122468  0.40649540     0.66880
H2192       H  0.98766502  0.70672243  0.36251318     0.15780
H2193       H  0.58568005  0.64501564  0.38053271     0.15490
N2194       N  0.59201531  0.68899501  0.33587779     0.74580
O2195       O  0.95819277  0.68085517  0.40695390    -0.38870
O2196       O  0.97608277  0.63370671  0.41753674    -0.38810
O2197       O  0.60011259  0.71727275  0.33005426    -0.39520
O2198       O  0.61097287  0.66680419  0.32955713    -0.39580
C2199       C  0.92523275  0.56349034  0.16243616    -0.11860
C2200       C  0.89306181  0.56514277  0.15388352     0.05140
C2201       C  0.88577993  0.56199823  0.12080349    -0.07150
C2202       C  0.90990094  0.55861321  0.09838666    -0.07890
C2203       C  0.94153522  0.55538708  0.10743421    -0.02450
C2204       C  0.94895101  0.55699131  0.14024633     0.04370
N2205       N  0.97989364  0.54985391  0.15203344     0.66880
H2206       H  0.93265161  0.56528521  0.18685901     0.15780
H2207       H  0.90334652  0.55684246  0.07352354     0.15490
N2208       N  0.85423955  0.55950476  0.10908136     0.74580
O2209       O  0.99280117  0.56814066  0.17192063    -0.38870
O2210       O  0.49105296  0.52232915  0.14813964    -0.38810
O2211       O  0.84427176  0.57957452  0.08906909    -0.39520
O2212       O  0.83936407  0.53380602  0.11281270    -0.39580
C2213       C  0.67803393  0.56007958  0.10224359    -0.11860
C2214       C  0.65182876  0.54036999  0.10668876     0.05140
C2215       C  0.64984781  0.52154166  0.13464167    -0.07150
C2216       C  0.67451769  0.52266397  0.15694817    -0.07890
C2217       C  0.70047842  0.54287740  0.15274959    -0.02450
C2218       C  0.70169801  0.56247603  0.12531079     0.04370
N2219       N  0.72525878  0.58669555  0.12157479     0.66880
H2220       H  0.67909641  0.57538888  0.08148197     0.15780
H2221       H  0.67346648  0.50742716  0.17771417     0.15490
N2222       N  0.62355349  0.00084337  0.14065551     0.74580
O2223       O  0.73686672  0.59212736  0.09450306    -0.38870
O2224       O  0.73053336  0.60604735  0.14385649    -0.38810
O2225       O  0.61036109  0.98625720  0.11813355    -0.39520
O2226       O  0.61548969  0.99451611  0.16885149    -0.39580
C2227       C  0.70583895  0.56712044  0.37819980    -0.11860
C2228       C  0.69926359  0.55599471  0.34743261     0.05140
C2229       C  0.66859924  0.54419988  0.34081942    -0.07150
C2230       C  0.64555670  0.54463518  0.36452848    -0.07890
C2231       C  0.65233784  0.55496836  0.39546887    -0.02450
C2232       C  0.68297916  0.56657161  0.40222803     0.04370
N2233       N  0.69123070  0.57862085  0.43300151     0.66880
H2234       H  0.72884943  0.57674476  0.38367697     0.15780
H2235       H  0.62254988  0.53490550  0.35909015     0.15490
N2236       N  0.66087883  0.52943518  0.31105847     0.74580
O2237       O  0.71684907  0.57042235  0.44593589    -0.38870
O2238       O  0.67559619  0.60112682  0.44484317    -0.38810
O2239       O  0.67704261  0.50631868  0.30121512    -0.39520
O2240       O  0.63510623  0.53583429  0.29743940    -0.39580
C2241       C  0.90940924  0.54285007  0.40130744    -0.11860
C2242       C  0.94064345  0.53516790  0.39374468     0.05140
C2243       C  0.94715817  0.52443140  0.36259888    -0.07150
C2244       C  0.92262120  0.52061352  0.34053023    -0.07890
C2245       C  0.89138169  0.52927071  0.34761689    -0.02450
C2246       C  0.88517317  0.54130805  0.37859584     0.04370
N2247       N  0.85529516  0.55471085  0.38692703     0.66880
H2248       H  0.90394773  0.55216462  0.42464492     0.15780
H2249       H  0.92853959  0.51099791  0.31751120     0.15490
N2250       N  0.97858949  0.51780524  0.35252820     0.74580
O2251       O  0.84239170  0.54690873  0.41280150    -0.38870
O2252       O  0.84495635  0.57849476  0.37179208    -0.38810
O2253       O  0.49231465  0.49292163  0.36196721    -0.39520
O2254       O  0.99114797  0.53476464  0.33126126    -0.39580
C2255       C  0.66957790  0.88475367  0.48224931    -0.11860
C2256       C  0.70163794  0.89405896  0.98153683     0.05140
C2257       C  0.70783507  0.92706236  0.98634544    -0.07150
C2258       C  0.68312120  0.94852916  0.99120211    -0.07890
C2259       C  0.65159035  0.93877996  0.99263535    -0.02450
C2260       C  0.64499467  0.90616145  0.48825774     0.04370
N2261       N  0.61367776  0.89376386  0.99082329     0.66880
H2262       H  0.66272467  0.86025453  0.47991205     0.15780
H2263       H  0.68910005  0.97333387  0.99450375     0.15490
N2264       N  0.73888459  0.93986847  0.48779797     0.74580
O2265       O  0.60245164  0.87719040  0.46853601    -0.38870
O2266       O  0.60025620  0.89343395  0.01755674    -0.38810
O2267       O  0.74944570  0.95511710  0.46424769    -0.39520
O2268       O  0.75234529  0.94255081  0.01446818    -0.39580
C2269       C  0.66819735  0.70725322  0.00334700    -0.11860
C2270       C  0.69988390  0.69861508  0.00930108     0.05140
C2271       C  0.70641583  0.66534097  0.51152415    -0.07150
C2272       C  0.68193249  0.64314147  0.51014075    -0.07890
C2273       C  0.65081303  0.65209001  0.00365918    -0.02450
C2274       C  0.64417146  0.68475841  0.99940611     0.04370
N2275       N  0.61385187  0.69568354  0.98884894     0.66880
H2276       H  0.66165785  0.73162885  0.99909475     0.15780
H2277       H  0.68788565  0.61822254  0.51271711     0.15490
N2278       N  0.73759579  0.65267566  0.51216940     0.74580
O2279       O  0.60134477  0.71948831  0.00192316    -0.38870
O2280       O  0.60290136  0.68600701  0.46265351    -0.38810
O2281       O  0.74676756  0.63711769  0.03617902    -0.39520
O2282       O  0.75261292  0.65024291  0.48643060    -0.39580
C2283       C  0.90960781  0.64360543  0.49831673    -0.11860
C2284       C  0.94131051  0.65209936  0.99476114     0.05140
C2285       C  0.94861224  0.68417927  0.98771908    -0.07150
C2286       C  0.92433402  0.70626955  0.98326489    -0.07890
C2287       C  0.89262015  0.69840849  0.98909468    -0.02450
C2288       C  0.88553616  0.66625627  0.49697184     0.04370
N2289       N  0.85468680  0.65624759  0.50634625     0.66880
H2290       H  0.90339879  0.61934067  0.50428412     0.15780
H2291       H  0.93096029  0.73015210  0.97663503     0.15490
N2292       N  0.98042758  0.69542272  0.98698059     0.74580
O2293       O  0.84199310  0.63279067  0.49274456    -0.38870
O2294       O  0.84308843  0.66644434  0.03196212    -0.38810
O2295       O  0.49118280  0.70775758  0.46189011    -0.39520
O2296       O  0.99497595  0.69956033  0.01287316    -0.39580
C2297       C  0.88816726  0.92148791  0.02656853    -0.11860
C2298       C  0.89360765  0.89111111  0.01399683     0.05140
C2299       C  0.92284986  0.88509051  0.49885936    -0.07150
C2300       C  0.94575523  0.90898190  0.49752360    -0.07890
C2301       C  0.94001686  0.93952521  0.00938315    -0.02450
C2302       C  0.91077750  0.94569407  0.02431702     0.04370
N2303       N  0.90380866  0.97600798  0.03809454     0.66880
H2304       H  0.86626308  0.92649699  0.03864462     0.15780
H2305       H  0.96768922  0.90402914  0.48542668     0.15490
N2306       N  0.92902171  0.85581587  0.48258408     0.74580
O2307       O  0.87757367  0.98908986  0.03271656    -0.38870
O2308       O  0.92161237  0.48725666  0.05935743    -0.38810
O2309       O  0.91056162  0.84648148  0.46095280    -0.39520
O2310       O  0.95535521  0.84228314  0.98590548    -0.39580
C2311       C  0.86799546  0.86683588  0.51460591     0.03530
C2312       C  0.87518532  0.83392640  0.51867613    -0.12620
C2313       C  0.85395745  0.81134046  0.50687063     0.01030
C2314       C  0.82816008  0.82290412  0.99011302    -0.11200
C2315       C  0.81506483  0.85219161  0.99760200     0.03530
C2316       C  0.83606373  0.87564398  0.00817314    -0.10560
H2317       H  0.89737468  0.82632285  0.52889688     0.09120
H2318       H  0.81477993  0.80674476  0.97643554     0.06650
H2319       H  0.82808336  0.89997589  0.00995558     0.06500
C2320       C  0.86840771  0.72436012  0.49119479     0.03530
C2321       C  0.87703020  0.75588944  0.50013851    -0.12620
C2322       C  0.85417096  0.77618429  0.51263301     0.01030
C2323       C  0.82504284  0.76250833  0.52013283    -0.11140
C2324       C  0.81356207  0.73767225  0.50147634     0.03530
C2325       C  0.83577858  0.71804613  0.48672401    -0.10560
H2326       H  0.90074177  0.76481145  0.49802346     0.09120
H2327       H  0.80919653  0.77517515  0.53514069     0.06650
H2328       H  0.82784479  0.69770157  0.47322616     0.06500
C2329       C  0.72504005  0.72433013  0.50816504     0.03530
C2330       C  0.75783065  0.71742743  0.50931806    -0.12620
C2331       C  0.77915391  0.73760595  0.49402044     0.01030
C2332       C  0.76670124  0.76422068  0.47843277    -0.11140
C2333       C  0.73885987  0.77785920  0.48978417     0.03530
C2334       C  0.71705265  0.75712636  0.50381001    -0.10560
H2335       H  0.76726312  0.69786248  0.52283131     0.09120
H2336       H  0.78087053  0.77731337  0.46201194     0.06650
H2337       H  0.69489454  0.76681113  0.51170921     0.06500
C2338       C  0.72707455  0.86845271  0.48094438     0.03530
C2339       C  0.75995363  0.87534575  0.48437946    -0.12620
C2340       C  0.77969473  0.85295098  0.49908320     0.01030
C2341       C  0.76529946  0.82541383  0.51062691    -0.11140
C2342       C  0.73917658  0.81317586  0.49492723     0.03530
C2343       C  0.71888015  0.83533029  0.48066617    -0.10560
H2344       H  0.77058420  0.89657354  0.47505500     0.09120
H2345       H  0.77819182  0.81020944  0.52612276     0.06650
H2346       H  0.69752151  0.82657004  0.46987808     0.06500
C2347       C  0.86671514  0.52888922  0.82177089     0.03530
C2348       C  0.83386275  0.52591165  0.82903862    -0.12620
C2349       C  0.81164051  0.53856669  0.80761676     0.01030
C2350       C  0.82372050  0.55426223  0.78126984    -0.11140
C2351       C  0.85209574  0.54514492  0.76785925     0.03530
C2352       C  0.87519167  0.53437898  0.78917012    -0.10560
H2353       H  0.82602064  0.51566921  0.85127189     0.09120
H2354       H  0.80847668  0.56880234  0.76781523     0.06650
H2355       H  0.89901146  0.53198365  0.78065683     0.06500
C2356       C  0.72477826  0.55486482  0.82312221     0.03530
C2357       C  0.75617680  0.54594206  0.83151548    -0.12620
C2358       C  0.77633254  0.53473631  0.80765684     0.01030
C2359       C  0.76248615  0.52907747  0.77784833    -0.11140
C2360       C  0.73777459  0.54829988  0.76722857     0.03530
C2361       C  0.71787026  0.56081314  0.79049094    -0.10560
H2362       H  0.76456363  0.54693385  0.85580836     0.09120
H2363       H  0.77483374  0.51498605  0.76101104     0.06650
H2364       H  0.69673414  0.57341917  0.78345481     0.06500
C2365       C  0.72494160  0.54510392  0.67799304     0.03530
C2366       C  0.71628551  0.54624784  0.71057100    -0.12620
C2367       C  0.73788219  0.55786633  0.73286285     0.01030
C2368       C  0.76560398  0.57137434  0.72091154    -0.11140
C2369       C  0.77839849  0.56039664  0.69227613     0.03530
C2370       C  0.75731566  0.54769946  0.66999631    -0.10560
H2371       H  0.69313638  0.53902118  0.71843872     0.09120
H2372       H  0.77926630  0.58682665  0.73562021     0.06650
H2373       H  0.76560534  0.54091794  0.64665014     0.06500
C2374       C  0.86817412  0.56517096  0.67981647     0.03530
C2375       C  0.87587453  0.55779484  0.71234991    -0.12620
C2376       C  0.85274385  0.54446521  0.73199547     0.01030
C2377       C  0.82469861  0.53562204  0.71701713    -0.11140
C2378       C  0.81310014  0.55399683  0.69205649     0.03530
C2379       C  0.83544726  0.56925200  0.67282873    -0.10560
H2380       H  0.89880798  0.56181216  0.72257237     0.09120
H2381       H  0.80916633  0.51981652  0.72892396     0.06650
H2382       H  0.82740929  0.58345275  0.65298220     0.06500
C2383       C  0.53427989  0.72472826  0.82363004     0.03530
C2384       C  0.53514420  0.75751863  0.83185663    -0.12620
C2385       C  0.54665276  0.77931962  0.80936291     0.01030
C2386       C  0.55962180  0.76646845  0.78175227    -0.11140
C2387       C  0.54842439  0.73787456  0.76929403     0.03530
C2388       C  0.53701179  0.71564983  0.79121584    -0.10560
H2389       H  0.52845165  0.76543562  0.85535615     0.09120
H2390       H  0.57415236  0.78104815  0.76741440     0.06650
H2391       H  0.53158120  0.69167136  0.78371296     0.06500
C2392       C  0.55520681  0.86920698  0.82053143     0.03530
C2393       C  0.55289400  0.83689296  0.83025465    -0.12620
C2394       C  0.54090578  0.81462811  0.80865155     0.01030
C2395       C  0.52861770  0.82682349  0.78023188    -0.11140
C2396       C  0.54100616  0.85441798  0.76655596     0.03530
C2397       C  0.55336657  0.87704869  0.78762549    -0.10560
H2398       H  0.55915154  0.82969901  0.85420279     0.09120
H2399       H  0.51333125  0.81241978  0.76650303     0.06650
H2400       H  0.55967727  0.90050874  0.77915265     0.06500
C2401       C  0.55600347  0.72235130  0.67963348     0.03530
C2402       C  0.55561236  0.71477858  0.71269162    -0.12620
C2403       C  0.54332628  0.73710711  0.73394035     0.01030
C2404       C  0.52971708  0.76419454  0.72051892    -0.11140
C2405       C  0.54096989  0.77668556  0.69196471     0.03530
C2406       C  0.55290321  0.75473629  0.67003978    -0.10560
H2407       H  0.56309163  0.69166079  0.72119946     0.09120
H2408       H  0.51454216  0.77823092  0.73459862     0.06650
H2409       H  0.55818606  0.76223550  0.64599369     0.06500
C2410       C  0.52844105  0.86564708  0.67692561     0.03530
C2411       C  0.53165144  0.87515536  0.70921597    -0.12620
C2412       C  0.54516025  0.85385318  0.73102997     0.01030
C2413       C  0.55784182  0.82597043  0.71841538    -0.11140
C2414       C  0.54502693  0.81218901  0.69104980     0.03530
C2415       C  0.53150152  0.83301655  0.66881975    -0.10560
H2416       H  0.52518429  0.89887729  0.71665154     0.09120
H2417       H  0.57378036  0.81247437  0.73243389     0.06650
H2418       H  0.52491155  0.82457718  0.64542484     0.06500
O2419       O  0.95564636  0.99364521  0.50428923    -0.79730
O2420       O  0.63545197  0.99279184  0.49782138    -0.81280
O2421       O  0.54711304  0.95465557  0.94766521    -0.78300
O2422       O  0.54433673  0.95337107  0.55141000    -0.76680
O2423       O  0.54278514  0.99125597  0.59048224    -0.78480
O2424       O  0.55065419  0.99347723  0.90943553    -0.79410
O2425       O  0.59753198  0.95449010  0.49794595    -0.80730
O2426       O  0.99348570  0.95510243  0.50260271    -0.81020
Eu2427     Eu  0.54575162  0.98062158  0.49991132     2.39200
O2428       O  0.57818199  0.51197971  0.53284601    -0.88530
O2429       O  0.51380979  0.51307786  0.96767132    -0.92140
C2430       C  0.96456133  0.96436499  0.50508663     1.02550
C2431       C  0.62655554  0.96345019  0.49675813     1.02370
C2432       C  0.55007768  0.96418005  0.91862825     1.02320
C2433       C  0.54268457  0.96215120  0.58070142     1.00170
H2434       H  0.59133434  0.50064390  0.95480570     0.29920
O2435       O  0.57789794  0.51330233  0.96818311    -1.00920
H2436       H  0.50080421  0.49997257  0.54602706     0.29960
O2437       O  0.51408809  0.51280580  0.53255467    -1.03460
O2438       O  0.63517260  0.59761372  0.50231797    -0.80690
O2439       O  0.95661675  0.59766559  0.49742682    -0.80230
O2440       O  0.59853425  0.55076905  0.91084152    -0.78660
O2441       O  0.59784751  0.54216560  0.59163260    -0.82000
O2442       O  0.99504632  0.54987402  0.59094851    -0.79860
O2443       O  0.99457170  0.54101991  0.90949127    -0.78510
O2444       O  0.54230213  0.63596457  0.94873028    -0.80030
O2445       O  0.54915614  0.63509928  0.55338163    -0.81950
O2446       O  0.54230572  0.59780463  0.90988964    -0.78690
O2447       O  0.54955172  0.59612638  0.59156578    -0.81370
O2448       O  0.63645611  0.54905111  0.94944753    -0.77100
O2449       O  0.95665839  0.54074046  0.94786528    -0.77130
O2450       O  0.95669205  0.54955959  0.55294670    -0.76780
O2451       O  0.63559505  0.54249199  0.55295334    -0.80270
O2452       O  0.59710810  0.63575224  0.50119922    -0.79700
O2453       O  0.99475863  0.63565546  0.50001953    -0.78030
Eu2454     Eu  0.60976765  0.54503469  0.50078311     2.39770
Eu2455     Eu  0.98210420  0.54524028  0.50045073     2.39570
Eu2456     Eu  0.54624393  0.54551424  0.93574392     2.38400
Eu2457     Eu  0.54628867  0.54425167  0.56512821     2.39880
Eu2458     Eu  0.54595977  0.60928869  0.50089104     2.39790
O2459       O  0.51409614  0.57710115  0.53321247    -0.92440
O2460       O  0.57808417  0.57773735  0.96831385    -0.91330
C2461       C  0.62611883  0.62694243  0.50203193     1.02730
C2462       C  0.96579908  0.62694224  0.49777944     1.01450
C2463       C  0.62756630  0.55156507  0.92020926     1.00840
C2464       C  0.62673249  0.54149008  0.58226612     1.02850
C2465       C  0.96597448  0.55115927  0.58223568     1.01770
C2466       C  0.96560577  0.53925949  0.91853318     1.00610
C2467       C  0.54087802  0.62687612  0.91945015     1.00670
C2468       C  0.55072077  0.62545568  0.58255705     1.03290
H2469       H  0.50073281  0.58989810  0.95500646     0.30660
O2470       O  0.51421315  0.57706728  0.96832904    -1.04600
H2471       H  0.59144887  0.58957853  0.54636574     0.32710
O2472       O  0.57799571  0.57673476  0.53306257    -1.07170
C2473       C  0.56013238  0.89566220  0.63907123    -0.11860
C2474       C  0.53011299  0.88988973  0.65162215     0.05140
C2475       C  0.50393631  0.90716425  0.63999520    -0.07150
C2476       C  0.50915339  0.93082577  0.61681683    -0.07890
C2477       C  0.53935010  0.93684706  0.60464869    -0.02450
C2478       C  0.56521574  0.91844846  0.61527773     0.04370
N2479       N  0.59662170  0.92250796  0.60284977     0.66880
H2480       H  0.57987612  0.88182412  0.64785936     0.15780
H2481       H  0.98947477  0.94472536  0.60799838     0.15490
N2482       N  0.97223724  0.90073959  0.65047275     0.74580
O2483       O  0.62018325  0.91381125  0.61908088    -0.38870
O2484       O  0.60114425  0.93307493  0.57512650    -0.38810
O2485       O  0.96697080  0.88663687  0.67644524    -0.39520
O2486       O  0.94907595  0.90936604  0.63363355    -0.39580
C2487       C  0.57649005  0.69817110  0.62964400    -0.11860
C2488       C  0.55586182  0.69665630  0.65556824     0.05140
C2489       C  0.53396999  0.67127212  0.65746156    -0.07150
C2490       C  0.53385134  0.64783252  0.63390464    -0.07890
C2491       C  0.55401821  0.64965563  0.60772004    -0.02450
C2492       C  0.57607430  0.67482406  0.60578498     0.04370
N2493       N  0.59906054  0.67624366  0.58079979     0.66880
H2494       H  0.59346937  0.71733142  0.62835475     0.15780
H2495       H  0.51665564  0.62883689  0.63515789     0.15490
N2496       N  0.51031685  0.66996756  0.68181298     0.74580
O2497       O  0.60951532  0.70275827  0.57150272    -0.38870
O2498       O  0.61248243  0.65118867  0.57154438    -0.38810
O2499       O  0.99389544  0.69420491  0.68782949    -0.39520
O2500       O  0.50237025  0.64353857  0.69358678    -0.39580
C2501       C  0.52473694  0.92720789  0.88165496    -0.11860
C2502       C  0.55268852  0.93962508  0.89400169     0.05140
C2503       C  0.58203997  0.92913917  0.88196611    -0.07150
C2504       C  0.58229316  0.90661408  0.85724418    -0.07890
C2505       C  0.55419398  0.89450635  0.84468028    -0.02450
C2506       C  0.52495143  0.90504144  0.85689443     0.04370
N2507       N  0.99531801  0.89350712  0.84473578     0.66880
H2508       H  0.00244633  0.93539090  0.89105160     0.15780
H2509       H  0.60448906  0.89789173  0.84814769     0.15490
N2510       N  0.61153757  0.94049458  0.89465444     0.74580
O2511       O  0.97164823  0.89198238  0.86275375    -0.38870
O2512       O  0.99146820  0.88887040  0.81534459    -0.38810
O2513       O  0.61371045  0.94945722  0.92317978    -0.39520
O2514       O  0.63630682  0.93879009  0.87824097    -0.39580
C2515       C  0.50905171  0.69337277  0.86690516    -0.11860
C2516       C  0.53571323  0.70007865  0.84859881     0.05140
C2517       C  0.56369975  0.68239882  0.85346139    -0.07150
C2518       C  0.56414337  0.65825143  0.87640509    -0.07890
C2519       C  0.53765734  0.65157912  0.89486608    -0.02450
C2520       C  0.50935519  0.66884661  0.88980847     0.04370
N2521       N  0.98066873  0.66122482  0.90649569     0.66880
H2522       H  0.98766500  0.70672262  0.86251349     0.15780
H2523       H  0.58568009  0.64501565  0.88053314     0.15490
N2524       N  0.59201521  0.68899480  0.83587799     0.74580
O2525       O  0.95819277  0.68085528  0.90695414    -0.38870
O2526       O  0.97608281  0.63370685  0.91753705    -0.38810
O2527       O  0.60011240  0.71727255  0.83005437    -0.39520
O2528       O  0.61097287  0.66680403  0.82955746    -0.39580
C2529       C  0.92523140  0.56348367  0.66243618    -0.11860
C2530       C  0.89306088  0.56514347  0.65388278     0.05140
C2531       C  0.88577985  0.56200506  0.62080186    -0.07150
C2532       C  0.90990110  0.55861906  0.59838545    -0.07890
C2533       C  0.94153460  0.55538706  0.60743355    -0.02450
C2534       C  0.94894956  0.55698537  0.64024606     0.04370
N2535       N  0.97989114  0.54984293  0.65203296     0.66880
H2536       H  0.93265000  0.56527138  0.68685958     0.15780
H2537       H  0.90334725  0.55685304  0.57352182     0.15490
N2538       N  0.85423973  0.55951908  0.60907767     0.74580
O2539       O  0.99280004  0.56812529  0.67192332    -0.38870
O2540       O  0.49104872  0.52231815  0.64813413    -0.38810
O2541       O  0.84427487  0.57959713  0.58907228    -0.39520
O2542       O  0.83936201  0.53382012  0.61279827    -0.39580
C2543       C  0.67803386  0.56007698  0.60224377    -0.11860
C2544       C  0.65182798  0.54036831  0.60668869     0.05140
C2545       C  0.64984620  0.52153994  0.63464152    -0.07150
C2546       C  0.67451605  0.52266110  0.65694810    -0.07890
C2547       C  0.70047758  0.54287346  0.65274966    -0.02450
C2548       C  0.70169792  0.56247239  0.62531110     0.04370
N2549       N  0.72525940  0.58669129  0.62157555     0.66880
H2550       H  0.67909695  0.57538641  0.58148229     0.15780
H2551       H  0.67346417  0.50742428  0.67771406     0.15490
N2552       N  0.62355264  0.00084326  0.64065552     0.74580
O2553       O  0.73686744  0.59212333  0.59450391    -0.38870
O2554       O  0.73053448  0.60604256  0.64385760    -0.38810
O2555       O  0.61036020  0.98625709  0.61813359    -0.39520
O2556       O  0.61548863  0.99451630  0.66885150    -0.39580
C2557       C  0.70583825  0.56712129  0.87819937    -0.11860
C2558       C  0.69926305  0.55599462  0.84743247     0.05140
C2559       C  0.66859898  0.54419876  0.84081978    -0.07150
C2560       C  0.64555654  0.54463408  0.86452893    -0.07890
C2561       C  0.65233759  0.55496819  0.89546903    -0.02450
C2562       C  0.68297864  0.56657234  0.90222777     0.04370
N2563       N  0.69123005  0.57862234  0.93300099     0.66880
H2564       H  0.72884847  0.57674645  0.88367621     0.15780
H2565       H  0.62254994  0.53490366  0.85909099     0.15490
N2566       N  0.66087879  0.52943299  0.81105931     0.74580
O2567       O  0.71684875  0.57042483  0.94593532    -0.38870
O2568       O  0.67559487  0.60112793  0.94484249    -0.38810
O2569       O  0.67704292  0.50631643  0.80121671    -0.39520
O2570       O  0.63510606  0.53583124  0.79744007    -0.39580
C2571       C  0.90940956  0.54285101  0.90130786    -0.11860
C2572       C  0.94064366  0.53516860  0.89374491     0.05140
C2573       C  0.94715830  0.52443275  0.86259883    -0.07150
C2574       C  0.92262129  0.52061603  0.84053002    -0.07890
C2575       C  0.89138194  0.52927348  0.84761692    -0.02450
C2576       C  0.88517351  0.54130994  0.87859621     0.04370
N2577       N  0.85529562  0.55471280  0.88692776     0.66880
H2578       H  0.90394813  0.55216505  0.92464556     0.15780
H2579       H  0.92853948  0.51100088  0.81751074     0.15490
N2580       N  0.97858950  0.51780583  0.85252808     0.74580
O2581       O  0.84239206  0.54691007  0.91280200    -0.38870
O2582       O  0.84495696  0.57849714  0.87179340    -0.38810
O2583       O  0.49231695  0.49292557  0.86197387    -0.39520
O2584       O  0.99114644  0.53476160  0.83125731    -0.39580
C2585       C  0.66957794  0.88475359  0.98224955    -0.11860
C2586       C  0.70163790  0.89405903  0.48153673     0.05140
C2587       C  0.70783503  0.92706242  0.48634545    -0.07150
C2588       C  0.68312116  0.94852922  0.49120210    -0.07890
C2589       C  0.65159030  0.93878002  0.49263525    -0.02450
C2590       C  0.64499472  0.90616138  0.98825795     0.04370
N2591       N  0.61367770  0.89376394  0.49082297     0.66880
H2592       H  0.66272472  0.86025443  0.97991241     0.15780
H2593       H  0.68910002  0.97333391  0.49450384     0.15490
N2594       N  0.73888462  0.93986844  0.98779783     0.74580
O2595       O  0.60245167  0.87719022  0.96853642    -0.38870
O2596       O  0.60025612  0.89343391  0.51755641    -0.38810
O2597       O  0.74944570  0.95511685  0.96424740    -0.39520
O2598       O  0.75234525  0.94255059  0.51446836    -0.39580
C2599       C  0.66819731  0.70725328  0.50334670    -0.11860
C2600       C  0.69988383  0.69861513  0.50930097     0.05140
C2601       C  0.70641595  0.66534092  0.01152410    -0.07150
C2602       C  0.68193262  0.64314141  0.01014083    -0.07890
C2603       C  0.65081294  0.65209008  0.50365892    -0.02450
C2604       C  0.64417142  0.68475848  0.49940577     0.04370
N2605       N  0.61385186  0.69568362  0.48884854     0.66880
H2606       H  0.66165787  0.73162891  0.49909434     0.15780
H2607       H  0.68788581  0.61822247  0.01271708     0.15490
N2608       N  0.73759593  0.65267564  0.01216898     0.74580
O2609       O  0.60134472  0.71948839  0.50192276    -0.38870
O2610       O  0.60290132  0.68600691  0.96265394    -0.38810
O2611       O  0.74676718  0.63711786  0.53617965    -0.39520
O2612       O  0.75261287  0.65024318  0.98643003    -0.39580
C2613       C  0.90960787  0.64360536  0.99831680    -0.11860
C2614       C  0.94131046  0.65209942  0.49476113     0.05140
C2615       C  0.94861223  0.68417936  0.48771932    -0.07150
C2616       C  0.92433407  0.70626971  0.48326526    -0.07890
C2617       C  0.89262016  0.69840863  0.48909491    -0.02450
C2618       C  0.88553619  0.66625617  0.99697177     0.04370
N2619       N  0.85468682  0.65624749  0.00634617     0.66880
H2620       H  0.90339887  0.61934063  0.00428432     0.15780
H2621       H  0.93096041  0.73015228  0.47663558     0.15490
N2622       N  0.98042758  0.69542273  0.48698104     0.74580
O2623       O  0.84199312  0.63279057  0.99274446    -0.38870
O2624       O  0.84308843  0.66644443  0.53196222    -0.38810
O2625       O  0.49118383  0.70775558  0.96189035    -0.39520
O2626       O  0.99497536  0.69956163  0.51287374    -0.39580
C2627       C  0.88816715  0.92148804  0.52656872    -0.11860
C2628       C  0.89360755  0.89111123  0.51399703     0.05140
C2629       C  0.92284995  0.88509040  0.99885913    -0.07150
C2630       C  0.94575530  0.90898180  0.99752334    -0.07890
C2631       C  0.94001678  0.93952531  0.50938339    -0.02450
C2632       C  0.91077740  0.94569419  0.52431723     0.04370
N2633       N  0.90380857  0.97600811  0.53809473     0.66880
H2634       H  0.86626295  0.92649713  0.53864477     0.15780
H2635       H  0.96768929  0.90402905  0.98542641     0.15490
N2636       N  0.92902179  0.85581577  0.98258384     0.74580
O2637       O  0.87757357  0.98908997  0.53271677    -0.38870
O2638       O  0.92161208  0.48725705  0.55935717    -0.38810
O2639       O  0.91056167  0.84648136  0.96095259    -0.39520
O2640       O  0.95535513  0.84228324  0.48590574    -0.39580
loop_ 
_geom_bond_atom_site_label_1 
_geom_bond_atom_site_label_2 
_geom_bond_distance 
_geom_bond_site_symmetry_2 
_ccdc_geom_bond_type 
C1            C2   1.428       .  A
C1          C336   1.431       .  A
C1          C318   1.493       .  S
C2            C3   1.401       .  A
C2            H7   1.083       .  S
C3          C334   1.388   1_554  A
C3           C12   1.499       .  S
C4            C5   1.390       .  A
C4          C333   1.388       .  A
C4            H8   1.057       .  S
C5            C6   1.403       .  A
C5          C360   1.505       .  S
C6          C331   1.431       .  A
C6            H9   1.082       .  S
C10          C11   1.428   1_556  A
C10          C15   1.424       .  A
C10         C307   1.503       .  S
C11          C12   1.398       .  A
C11          H16   1.079   1_554  S
C12          C13   1.402       .  A
C13          C14   1.396       .  A
C13          H17   1.068       .  S
C14          C15   1.402   1_554  A
C14          C21   1.494   1_554  S
C15          H18   1.082       .  S
C19          C20   1.424       .  A
C19          C24   1.432       .  A
C19         C290   1.522       .  S
C20          C21   1.399   1_554  A
C20          H25   1.076       .  S
C21          C22   1.399       .  A
C22          C23   1.401       .  A
C22          H26   1.069       .  S
C23          C24   1.403   1_556  A
C23          C32   1.503       .  S
C24          H27   1.080       .  S
C28          C29   1.434       .  A
C28          C33   1.437       .  A
C28         C276   1.527       .  S
C29          C30   1.402       .  A
C29          H34   1.075       .  S
C30          C31   1.397   1_556  A
C30         C335   1.505       .  S
C31          C32   1.389   1_554  A
C31          H35   1.063       .  S
C32          C33   1.402       .  A
C33          H36   1.079       .  S
C37          C38   1.435       .  A
C37          C42   1.437       .  A
C37         C265   1.507       .  S
C38          C39   1.406       .  A
C38          H43   1.082       .  S
C39          C40   1.388       .  A
C39          C48   1.509       .  S
C40          C41   1.387       .  A
C40          H44   1.053       .  S
C41          C42   1.401       .  A
C41          C66   1.509       .  S
C42          H45   1.080       .  S
C46          C47   1.429       .  A
C46          C51   1.423       .  A
C46         C248   1.494       .  S
C47          C48   1.404       .  A
C47          H52   1.082       .  S
C48          C49   1.404       .  A
C49          C50   1.397       .  A
C49          H53   1.065       .  S
C50          C51   1.399       .  A
C50          C57   1.499       .  S
C51          H54   1.083       .  S
C55          C56   1.421       .  A
C55          C60   1.421       .  A
C55         C237   1.486       .  S
C56          C57   1.399       .  A
C56          H61   1.082       .  S
C57          C58   1.402       .  A
C58          C59   1.402       .  A
C58          H62   1.069       .  S
C59          C60   1.401       .  A
C59          C68   1.499       .  S
C60          H63   1.083       .  S
C64          C65   1.438       .  A
C64          C69   1.430       .  A
C64         C220   1.522       .  S
C65          C66   1.402       .  A
C65          H70   1.077       .  S
C66          C67   1.397       .  A
C67          C68   1.391       .  A
C67          H71   1.063       .  S
C68          C69   1.403       .  A
C69          H72   1.079       .  S
C73          C74   1.424       .  A
C73          C78   1.422       .  A
C73         C206   1.475       .  S
C74          C75   1.405       .  A
C74          H79   1.083       .  S
C75          C76   1.397       .  A
C75          C84   1.506       .  S
C76          C77   1.397       .  A
C76          H80   1.059       .  S
C77          C78   1.399       .  A
C77          C93   1.502       .  S
C78          H81   1.083       .  S
C82          C83   1.422       .  A
C82          C87   1.423       .  A
C82         C195   1.474       .  S
C83          C84   1.402       .  A
C83          H88   1.083       .  S
C84          C85   1.398       .  A
C85          C86   1.398       .  A
C85          H89   1.059       .  S
C86          C87   1.404       .  A
C86         C102   1.505       .  S
C87          H90   1.083       .  S
C91          C92   1.425       .  A
C91          C96   1.426       .  A
C91         C178   1.483       .  S
C92          C93   1.401       .  A
C92          H97   1.083       .  S
C93          C94   1.395       .  A
C94          C95   1.395       .  A
C94          H98   1.058       .  S
C95          C96   1.403       .  A
C95         C104   1.505       .  S
C96          H99   1.083       .  S
C100        C101   1.423       .  A
C100        C105   1.422       .  A
C100        C164   1.474       .  S
C101        C102   1.402       .  A
C101        H106   1.083       .  S
C102        C103   1.398       .  A
C103        C104   1.399       .  A
C103        H107   1.060       .  S
C104        C105   1.401       .  A
C105        H108   1.083       .  S
O109        C120   1.290       .  A
O109       Eu805   2.451       .  S
O110        C121   1.292       .  A
O110       Eu804   2.458   1_556  S
O111        C122   1.291       .  A
O111       Eu447   2.458       .  S
O112        C123   1.289       .  A
O112       Eu117   2.447   1_554  S
O113        C123   1.293       .  A
O113       Eu807   2.474       .  S
O114        C122   1.291       .  A
O114       Eu806   2.464       .  S
O115        C121   1.291       .  A
O115       Eu117   2.462       .  S
O116        C120   1.294       .  A
O116      Eu1437   2.469   1_554  S
Eu117       O441   2.458       .  S
Eu117      O1436   2.469   1_456  S
Eu117       O787   2.356   1_556  S
Eu117      O1109   2.350       .  S
Eu117       O778   2.357   1_556  S
Eu117      O1115   2.354       .  S
O118       Eu147   2.355       .  S
O118       Eu144   2.357       .  S
O118       Eu777   2.357   1_544  S
O119       Eu146   2.360       .  S
O119      Eu1107   2.350   1_545  S
O119      Eu1795   2.360   1_455  S
C120        C321   1.488       .  S
C121        C279   1.497       .  S
C122        C192   1.470       .  S
C123        C167   1.471       .  S
H124        O125   0.964       .  S
O125       Eu146   2.342       .  S
O125      Eu1107   2.354   1_545  S
O125       Eu474   2.344       .  S
H126        O127   0.967   1_565  S
O127       Eu147   2.341       .  S
O127       Eu777   2.352   1_544  S
O127      Eu1465   2.350   1_455  S
O128        C151   1.293       .  A
O128       Eu144   2.463       .  S
O129        C152   1.293       .  A
O129       Eu145   2.461   1_556  S
O130        C153   1.294       .  A
O130       Eu146   2.469       .  S
O131        C154   1.291       .  A
O131       Eu147   2.455       .  S
O132        C155   1.288       .  A
O132      Eu1467   2.449       .  S
O133        C156   1.291       .  A
O133      Eu1466   2.461       .  S
O134        C157   1.292       .  A
O134       Eu478   2.465       .  S
O135        C158   1.292       .  A
O135       Eu148   2.466       .  S
O136        C157   1.291       .  A
O136       Eu146   2.457       .  S
O137        C158   1.291       .  A
O137       Eu147   2.456       .  S
O138        C153   1.289       .  A
O138       Eu474   2.447       .  S
O139        C156   1.294       .  A
O139       Eu475   2.466       .  S
O140        C155   1.294       .  A
O140       Eu145   2.467       .  S
O141        C154   1.291       .  A
O141       Eu144   2.451       .  S
O142        C151   1.288       .  A
O142       Eu148   2.442       .  S
O143        C152   1.287   1_554  A
O143      Eu1468   2.442       .  S
Eu144       O770   2.458   1_544  S
Eu144       O468   2.447   1_554  S
Eu144       O162   2.338       .  S
Eu144       O455   2.344   1_554  S
Eu144       O480   2.355   1_554  S
Eu145       O769   2.450   1_545  S
Eu145       O469   2.466   1_554  S
Eu145      O1769   2.360   1_554  S
Eu145      O1447   2.350       .  S
Eu145      O1469   2.354       .  S
Eu145      O1810   2.342   1_554  S
Eu146       O774   2.464   1_545  S
Eu146      O1453   2.461   1_455  S
Eu146       O160   2.349       .  S
Eu146       O150   2.355       .  S
Eu147       O773   2.475   1_545  S
Eu147      O1452   2.449   1_455  S
Eu147       O149   2.358       .  S
Eu147       O162   2.345       .  S
Eu148       O464   2.465   1_554  S
Eu148      O1463   2.442   1_455  S
Eu148       O149   2.349       .  S
Eu148       O162   2.353       .  S
Eu148       O490   2.352   1_554  S
Eu148       O480   2.351   1_554  S
O149      Eu1465   2.354   1_455  S
O150       Eu474   2.355       .  S
O150       Eu478   2.351       .  S
C151        C293   1.492       .  S
C152        C304   1.489       .  S
C153        C251   1.489       .  S
C154        C234   1.478       .  S
C155        C223   1.497       .  S
C156        C262   1.495       .  S
C157        C209   1.470       .  S
C158        C181   1.477       .  S
H159        O160   0.964       .  S
O160      Eu1795   2.342   1_455  S
O160       Eu478   2.352       .  S
H161        O162   0.965       .  S
C163        C164   1.403       .  A
C163        C168   1.401       .  A
C163        H170   1.084       .  S
C164        C165   1.414       .  A
C165        C166   1.409       .  A
C165       N1492   1.444   1_455  S
C166        C167   1.406       .  A
C166       H1491   1.084   1_455  S
C167        C168   1.415       .  A
C168        N169   1.445       .  S
N169        O173   1.263       .  A
N169        O174   1.262       .  A
H171       C1486   1.084       .  S
N172       C1485   1.444       .  S
N172        O175   1.262       .  A
N172        O176   1.263       .  A
C177        C178   1.402       .  A
C177        C182   1.406       .  A
C177        H184   1.083       .  S
C178        C179   1.419       .  A
C179        C180   1.400       .  A
C179        N186   1.438       .  S
C180        C181   1.399       .  A
C180        H185   1.084       .  S
C181        C182   1.417       .  A
C182        N183   1.438       .  S
N183        O187   1.263       .  A
N183        O188   1.262       .  A
N186        O190   1.263       .  A
N186       O1509   1.263   1_455  A
O189       N1506   1.263       .  A
C191        C192   1.397       .  A
C191        C196   1.400       .  A
C191       H1518   1.084       .  S
C192        C193   1.418       .  A
C193        C194   1.409       .  A
C193        N200   1.443       .  S
C194        C195   1.401       .  A
C194        H199   1.083       .  S
C195        C196   1.418       .  A
C196       N1517   1.442   1_455  S
N197       C1516   1.442       .  S
N197        O201   1.263       .  A
N197        O202   1.262       .  A
H198       C1511   1.084       .  S
N200        O203   1.262       .  A
N200        O204   1.263       .  A
C205        C206   1.400       .  A
C205        C210   1.410       .  A
C205       H1532   1.083   1_455  S
C206        C207   1.417       .  A
C207        C208   1.399       .  A
C207        N214   1.441       .  S
C208        C209   1.397       .  A
C208        H213   1.084       .  S
C209        C210   1.420       .  A
C210       N1531   1.444   1_455  S
N211       C1530   1.444       .  S
N211        O215   1.263       .  A
N211        O216   1.262       .  A
H212       C1525   1.083       .  S
N214        O217   1.262       .  A
N214        O218   1.263       .  A
C219        C220   1.414       .  A
C219        C224   1.403       .  A
C219        H226   1.076       .  S
C220        C221   1.430       .  A
C221        C222   1.402       .  A
C221        N228   1.430       .  S
C222        C223   1.402       .  A
C222        H227   1.084       .  S
C223        C224   1.416       .  A
C224        N225   1.435       .  S
N225        O229   1.262       .  A
N225       O1550   1.263       .  A
N228        O231   1.263       .  A
N228        O232   1.262       .  A
O230       N1545   1.263       .  A
C233        C234   1.401       .  A
C233        C238   1.398       .  A
C233        H240   1.084       .  S
C234        C235   1.418       .  A
C235        C236   1.405       .  A
C235        N902   1.439       .  S
C236        C237   1.404       .  A
C236        H241   1.083       .  S
C237        C238   1.417       .  A
C238        N239   1.437       .  S
N239        O243   1.262       .  A
N239        O244   1.263       .  A
N242        C895   1.439       .  S
N242        O245   1.260       .  A
N242        O246   1.263       .  A
C247        C248   1.404       .  A
C247        C252   1.404       .  A
C247        H254   1.083       .  S
C248        C249   1.421       .  A
C249        C250   1.400       .  A
C249        N256   1.436       .  S
C250        C251   1.402       .  A
C250        H255   1.084       .  S
C251        C252   1.419       .  A
C252        N253   1.434       .  S
N253        O257   1.263       .  A
N253        O258   1.262       .  A
N256        O259   1.263       .  A
N256        O260   1.263       .  A
C261        C262   1.404       .  A
C261        C266   1.404       .  A
C261        H268   1.084       .  S
C262        C263   1.415       .  A
C263        C264   1.403       .  A
C263        N270   1.430       .  S
C264        C265   1.410       .  A
C264        H269   1.081       .  S
C265        C266   1.425       .  A
C266        N267   1.434       .  S
N267        O271   1.263       .  A
N267        O272   1.263       .  A
N270        O274   1.262       .  A
N270       O1593   1.261   1_545  A
O273       N1590   1.261   1_565  A
C275        C280   1.404       .  A
C275        C606   1.418       .  A
C275        H282   1.076       .  S
C276        C277   1.429       .  A
C276        C605   1.418       .  A
C277        C278   1.401       .  A
C277        N614   1.426       .  S
C278        C279   1.403       .  A
C278        H283   1.084       .  S
C279        C610   1.414       .  A
C280        C609   1.414       .  A
C280        N611   1.434       .  S
N281        C610   1.434       .  S
N281        O286   1.262   1_556  A
N281        O615   1.262       .  A
N284        C607   1.426       .  S
N284        O287   1.262       .  A
N284        O618   1.262       .  A
O285        N611   1.262       .  A
O288        N614   1.262   1_554  A
C289        C290   1.416       .  A
C289        C294   1.402   1_554  A
C289        H296   1.077   1_554  S
C290        C621   1.430       .  A
C291        C292   1.400       .  A
C291        C620   1.430       .  A
C291        N298   1.428       .  S
C292        C623   1.400       .  A
C292        H297   1.084       .  S
C293        C294   1.414   1_554  A
C293        C622   1.400       .  A
C294        N295   1.436       .  S
N295        O299   1.262   1_556  A
N295        O630   1.263       .  A
N298        O302   1.263       .  A
N298        O631   1.262       .  A
O300        N625   1.263       .  A
O301        N628   1.262       .  A
C303        C308   1.399       .  A
C303        C634   1.402       .  A
C303        H310   1.084       .  S
C304        C305   1.416       .  A
C304        C633   1.402       .  A
C305        C306   1.400       .  A
C305        N312   1.433       .  S
C306        C307   1.410       .  A
C306        H311   1.080       .  S
C307        C638   1.425       .  A
C308        C637   1.425       .  A
C308        N309   1.433       .  S
N309        O313   1.263       .  A
N309        O644   1.262       .  A
N312        O316   1.263   1_556  A
N312       O1965   1.262       .  A
O314        N639   1.262       .  A
O315       N1962   1.262       .  A
C317        C318   1.404       .  A
C317        C322   1.404       .  A
C317        H324   1.083       .  S
C318        C649   1.421   1_554  A
C319        C320   1.401       .  A
C319        C648   1.421       .  A
C319        N326   1.436       .  S
C320        C651   1.402       .  A
C320        H325   1.084       .  S
C321        C322   1.418       .  A
C321        C650   1.402   1_554  A
C322        N323   1.434       .  S
N323        O327   1.263       .  A
N323        O988   1.262       .  A
N326        O329   1.263       .  A
N326        O660   1.263       .  A
O328        N983   1.262       .  A
O330        N656   1.263       .  A
C331        C332   1.428       .  A
C331        C648   1.493       .  S
C332        C333   1.401       .  A
C332        H337   1.083       .  S
C333        C342   1.499       .  S
C334        C335   1.390       .  A
C334        H338   1.057       .  S
C335        C336   1.403   1_556  A
C336        H339   1.082       .  S
C340        C341   1.428       .  A
C340        C345   1.424       .  A
C340        C637   1.503       .  S
C341        C342   1.398       .  A
C341        H346   1.079       .  S
C342        C343   1.402       .  A
C343        C344   1.396       .  A
C343        H347   1.068       .  S
C344        C345   1.402       .  A
C344        C351   1.494       .  S
C345        H348   1.082       .  S
C349        C350   1.424       .  A
C349        C354   1.432       .  A
C349        C620   1.522       .  S
C350        C351   1.399       .  A
C350        H355   1.076       .  S
C351        C352   1.399       .  A
C352        C353   1.401       .  A
C352        H356   1.069       .  S
C353        C354   1.403       .  A
C353        C362   1.503       .  S
C354        H357   1.080       .  S
C358        C359   1.434       .  A
C358        C363   1.437       .  A
C358        C606   1.527       .  S
C359        C360   1.402       .  A
C359        H364   1.075       .  S
C360        C361   1.397       .  A
C361        C362   1.389       .  A
C361        H365   1.063       .  S
C362        C363   1.402       .  A
C363        H366   1.079       .  S
C367        C368   1.435       .  A
C367        C372   1.437       .  A
C367        C595   1.507       .  S
C368        C369   1.406       .  A
C368        H373   1.082       .  S
C369        C370   1.388       .  A
C369        C378   1.509       .  S
C370        C371   1.387       .  A
C370        H374   1.053       .  S
C371        C372   1.401       .  A
C371        C396   1.509       .  S
C372        H375   1.080       .  S
C376        C377   1.429       .  A
C376        C381   1.423       .  A
C376        C578   1.494       .  S
C377        C378   1.404       .  A
C377        H382   1.082       .  S
C378        C379   1.404       .  A
C379        C380   1.397       .  A
C379        H383   1.065       .  S
C380        C381   1.399       .  A
C380        C387   1.499       .  S
C381        H384   1.083       .  S
C385        C386   1.421       .  A
C385        C390   1.421       .  A
C385        C567   1.486       .  S
C386        C387   1.399       .  A
C386        H391   1.082       .  S
C387        C388   1.402       .  A
C388        C389   1.402       .  A
C388        H392   1.069       .  S
C389        C390   1.401       .  A
C389        C398   1.499       .  S
C390        H393   1.083       .  S
C394        C395   1.438       .  A
C394        C399   1.430       .  A
C394        C550   1.522       .  S
C395        C396   1.402       .  A
C395        H400   1.077       .  S
C396        C397   1.397       .  A
C397        C398   1.391       .  A
C397        H401   1.063       .  S
C398        C399   1.403       .  A
C399        H402   1.079       .  S
C403        C404   1.424       .  A
C403        C408   1.422       .  A
C403        C536   1.475       .  S
C404        C405   1.405       .  A
C404        H409   1.083       .  S
C405        C406   1.397       .  A
C405        C414   1.506       .  S
C406        C407   1.397       .  A
C406        H410   1.059       .  S
C407        C408   1.399       .  A
C407        C423   1.502       .  S
C408        H411   1.083       .  S
C412        C413   1.422       .  A
C412        C417   1.423       .  A
C412        C525   1.474       .  S
C413        C414   1.402       .  A
C413        H418   1.083       .  S
C414        C415   1.398       .  A
C415        C416   1.398       .  A
C415        H419   1.059       .  S
C416        C417   1.404       .  A
C416        C432   1.505       .  S
C417        H420   1.083       .  S
C421        C422   1.425       .  A
C421        C426   1.426       .  A
C421        C508   1.483       .  S
C422        C423   1.401       .  A
C422        H427   1.083       .  S
C423        C424   1.395       .  A
C424        C425   1.395       .  A
C424        H428   1.058       .  S
C425        C426   1.403       .  A
C425        C434   1.505       .  S
C426        H429   1.083       .  S
C430        C431   1.423       .  A
C430        C435   1.422       .  A
C430        C494   1.474       .  S
C431        C432   1.402       .  A
C431        H436   1.083       .  S
C432        C433   1.398       .  A
C433        C434   1.399       .  A
C433        H437   1.060       .  S
C434        C435   1.401       .  A
C435        H438   1.083       .  S
O439        C450   1.290       .  A
O439      Eu1135   2.451       .  S
O440        C451   1.292       .  A
O440      Eu1134   2.458       .  S
O441        C452   1.291       .  A
O442        C453   1.289       .  A
O442       Eu447   2.447       .  S
O443        C453   1.293       .  A
O443      Eu1137   2.474       .  S
O444        C452   1.291       .  A
O444      Eu1136   2.464       .  S
O445        C451   1.291       .  A
O445       Eu447   2.462       .  S
O446        C450   1.294       .  A
O446      Eu1767   2.469       .  S
Eu447      O1766   2.469   1_455  S
Eu447      O1117   2.356       .  S
Eu447       O779   2.350       .  S
Eu447      O1108   2.357       .  S
Eu447       O785   2.354       .  S
O448      Eu1107   2.357   1_545  S
O448       Eu477   2.355       .  S
O448       Eu474   2.357       .  S
O449       Eu777   2.350   1_545  S
O449      Eu1465   2.360   1_456  S
O449       Eu476   2.360       .  S
C450        C651   1.488       .  S
C451        C609   1.497       .  S
C452        C522   1.470       .  S
C453        C497   1.471       .  S
H454        O455   0.964       .  S
O455       Eu777   2.354   1_545  S
O455       Eu476   2.342       .  S
H456        O457   0.967   1_565  S
O457      Eu1107   2.352   1_545  S
O457      Eu1795   2.350   1_455  S
O457       Eu477   2.341       .  S
O458        C481   1.293       .  A
O458       Eu474   2.463       .  S
O459        C482   1.293       .  A
O459       Eu475   2.461       .  S
O460        C483   1.294       .  A
O460       Eu476   2.469       .  S
O461        C484   1.291       .  A
O461       Eu477   2.455       .  S
O462        C485   1.288       .  A
O462      Eu1797   2.449       .  S
O463        C486   1.291       .  A
O463      Eu1796   2.461       .  S
O464        C487   1.292       .  A
O465        C488   1.292       .  A
O465       Eu478   2.466       .  S
O466        C487   1.291       .  A
O466       Eu476   2.457       .  S
O467        C488   1.291       .  A
O467       Eu477   2.456       .  S
O468        C483   1.289       .  A
O469        C486   1.294       .  A
O470        C485   1.294       .  A
O470       Eu475   2.467       .  S
O471        C484   1.291       .  A
O471       Eu474   2.451       .  S
O472        C481   1.288       .  A
O472       Eu478   2.442       .  S
O473        C482   1.287       .  A
O473      Eu1798   2.442       .  S
Eu474      O1100   2.458   1_545  S
Eu474       O492   2.338       .  S
Eu475      O1099   2.450   1_545  S
Eu475      O1439   2.360       .  S
Eu475      O1777   2.350       .  S
Eu475      O1799   2.354       .  S
Eu475      O1480   2.342       .  S
Eu476      O1104   2.464   1_545  S
Eu476      O1783   2.461   1_455  S
Eu476       O490   2.349       .  S
Eu476       O480   2.355       .  S
Eu477      O1103   2.475   1_545  S
Eu477      O1782   2.449   1_455  S
Eu477       O479   2.358       .  S
Eu477       O492   2.345       .  S
Eu478      O1793   2.442   1_455  S
Eu478       O479   2.349       .  S
Eu478       O492   2.353       .  S
O479      Eu1795   2.354   1_455  S
C481        C623   1.492       .  S
C482        C634   1.489       .  S
C483        C581   1.489       .  S
C484        C564   1.478       .  S
C485        C553   1.497       .  S
C486        C592   1.495       .  S
C487        C539   1.470       .  S
C488        C511   1.477       .  S
H489        O490   0.964       .  S
O490      Eu1465   2.342   1_456  S
H491        O492   0.965       .  S
C493        C494   1.403       .  A
C493        C498   1.401       .  A
C493        H500   1.084       .  S
C494        C495   1.414       .  A
C495        C496   1.409       .  A
C495       N1822   1.444   1_455  S
C496        C497   1.406       .  A
C496       H1821   1.084   1_455  S
C497        C498   1.415       .  A
C498        N499   1.445       .  S
N499        O503   1.263       .  A
N499        O504   1.262       .  A
H501       C1816   1.084       .  S
N502       C1815   1.444       .  S
N502        O505   1.262       .  A
N502        O506   1.263       .  A
C507        C508   1.402       .  A
C507        C512   1.406       .  A
C507        H514   1.083       .  S
C508        C509   1.419       .  A
C509        C510   1.400       .  A
C509        N516   1.438       .  S
C510        C511   1.399       .  A
C510        H515   1.084       .  S
C511        C512   1.417       .  A
C512        N513   1.438       .  S
N513        O517   1.263       .  A
N513        O518   1.262       .  A
N516       O1839   1.263   1_455  A
N516        O520   1.263       .  A
O519       N1836   1.263       .  A
C521        C522   1.397       .  A
C521        C526   1.400       .  A
C521       H1848   1.084       .  S
C522        C523   1.418       .  A
C523        C524   1.409       .  A
C523        N530   1.443       .  S
C524        C525   1.401       .  A
C524        H529   1.083       .  S
C525        C526   1.418       .  A
C526       N1847   1.442   1_455  S
N527       C1846   1.442       .  S
N527        O531   1.263       .  A
N527        O532   1.262       .  A
H528       C1841   1.084       .  S
N530        O533   1.262       .  A
N530        O534   1.263       .  A
C535        C536   1.400       .  A
C535        C540   1.410       .  A
C535       H1862   1.083   1_455  S
C536        C537   1.417       .  A
C537        C538   1.399       .  A
C537        N544   1.441       .  S
C538        C539   1.397       .  A
C538        H543   1.084       .  S
C539        C540   1.420       .  A
C540       N1861   1.444   1_455  S
N541       C1860   1.444       .  S
N541        O545   1.263       .  A
N541        O546   1.262       .  A
H542       C1855   1.083       .  S
N544        O547   1.262       .  A
N544        O548   1.263       .  A
C549        C550   1.414       .  A
C549        C554   1.403       .  A
C549        H556   1.076       .  S
C550        C551   1.430       .  A
C551        C552   1.402       .  A
C551        N558   1.430       .  S
C552        C553   1.402       .  A
C552        H557   1.084       .  S
C553        C554   1.416       .  A
C554        N555   1.435       .  S
N555        O559   1.262       .  A
N555       O1880   1.263       .  A
N558        O561   1.263       .  A
N558        O562   1.262       .  A
O560       N1875   1.263       .  A
C563        C564   1.401       .  A
C563        C568   1.398       .  A
C563        H570   1.084       .  S
C564        C565   1.418       .  A
C565        C566   1.405       .  A
C565       N1232   1.439       .  S
C566        C567   1.404       .  A
C566        H571   1.083       .  S
C567        C568   1.417       .  A
C568        N569   1.437       .  S
N569        O573   1.262       .  A
N569        O574   1.263       .  A
N572       C1225   1.439       .  S
N572        O575   1.260       .  A
N572        O576   1.263       .  A
C577        C578   1.404       .  A
C577        C582   1.404       .  A
C577        H584   1.083       .  S
C578        C579   1.421       .  A
C579        C580   1.400       .  A
C579        N586   1.436       .  S
C580        C581   1.402       .  A
C580        H585   1.084       .  S
C581        C582   1.419       .  A
C582        N583   1.434       .  S
N583        O587   1.263       .  A
N583        O588   1.262       .  A
N586        O589   1.263       .  A
N586        O590   1.263       .  A
C591        C592   1.404       .  A
C591        C596   1.404       .  A
C591        H598   1.084       .  S
C592        C593   1.415       .  A
C593        C594   1.403       .  A
C593        N600   1.430       .  S
C594        C595   1.410       .  A
C594        H599   1.081       .  S
C595        C596   1.425       .  A
C596        N597   1.434       .  S
N597        O601   1.263       .  A
N597        O602   1.263       .  A
N600       O1923   1.261   1_545  A
N600        O604   1.262       .  A
O603       N1920   1.261   1_565  A
C605        C610   1.404       .  A
C605        H612   1.076       .  S
C606        C607   1.429       .  A
C607        C608   1.401       .  A
C608        C609   1.403       .  A
C608        H613   1.084       .  S
N611        O616   1.262       .  A
N614        O617   1.262       .  A
C619        C620   1.416       .  A
C619        C624   1.402       .  A
C619        H626   1.077       .  S
C621        C622   1.400       .  A
C621        N628   1.428       .  S
C622        H627   1.084       .  S
C623        C624   1.414       .  A
C624        N625   1.436       .  S
N625        O629   1.262       .  A
N628        O632   1.263   1_554  A
C633        C638   1.399       .  A
C633        H640   1.084   1_556  S
C634        C635   1.416       .  A
C635        C636   1.400       .  A
C635        N642   1.433       .  S
C636        C637   1.410       .  A
C636        H641   1.080       .  S
C638        N639   1.433   1_556  S
N639        O643   1.263   1_554  A
N642       O1635   1.262       .  A
N642        O646   1.263       .  A
O645       N1632   1.262       .  A
C647        C648   1.404       .  A
C647        C652   1.404       .  A
C647        H654   1.083       .  S
C649        C650   1.401       .  A
C649        N656   1.436       .  S
C650        H655   1.084       .  S
C651        C652   1.418       .  A
C652        N653   1.434       .  S
N653        O657   1.263       .  A
N653       O1318   1.262       .  A
N656        O659   1.263       .  A
O658       N1313   1.262       .  A
C661        C662   1.428       .  A
C661        C996   1.431       .  A
C661        C978   1.493       .  S
C662        C663   1.401       .  A
C662        H667   1.083       .  S
C663        C994   1.388   1_554  A
C663        C672   1.499       .  S
C664        C993   1.388       .  A
C664        C665   1.390       .  A
C664        H668   1.057       .  S
C665        C666   1.403       .  A
C665       C1020   1.505       .  S
C666        C991   1.431       .  A
C666        H669   1.082       .  S
C670        C671   1.428   1_556  A
C670        C675   1.424       .  A
C670        C967   1.503       .  S
C671        C672   1.398       .  A
C671        H676   1.079   1_554  S
C672        C673   1.402       .  A
C673        C674   1.396       .  A
C673        H677   1.068       .  S
C674        C675   1.402   1_554  A
C674        C681   1.494   1_554  S
C675        H678   1.082       .  S
C679        C680   1.424       .  A
C679        C684   1.432       .  A
C679        C950   1.522       .  S
C680        C681   1.399   1_554  A
C680        H685   1.076       .  S
C681        C682   1.399       .  A
C682        C683   1.401       .  A
C682        H686   1.069       .  S
C683        C684   1.403   1_556  A
C683        C692   1.503       .  S
C684        H687   1.080       .  S
C688        C689   1.434       .  A
C688        C693   1.437       .  A
C688        C936   1.527       .  S
C689        C690   1.402       .  A
C689        H694   1.075       .  S
C690        C691   1.397   1_556  A
C690        C995   1.505       .  S
C691        C692   1.389   1_554  A
C691        H695   1.063       .  S
C692        C693   1.402       .  A
C693        H696   1.079       .  S
C697        C698   1.435       .  A
C697        C702   1.437       .  A
C697        C925   1.507       .  S
C698        C699   1.406       .  A
C698        H703   1.082       .  S
C699        C700   1.388       .  A
C699        C708   1.509       .  S
C700        C701   1.387       .  A
C700        H704   1.053       .  S
C701        C702   1.401       .  A
C701        C726   1.509       .  S
C702        H705   1.080       .  S
C706        C707   1.429       .  A
C706        C711   1.423       .  A
C706        C908   1.494       .  S
C707        C708   1.404       .  A
C707        H712   1.082       .  S
C708        C709   1.404       .  A
C709        C710   1.397       .  A
C709        H713   1.065       .  S
C710        C711   1.399       .  A
C710        C717   1.499       .  S
C711        H714   1.083       .  S
C715        C716   1.421       .  A
C715        C720   1.421       .  A
C715        C897   1.486       .  S
C716        C717   1.399       .  A
C716        H721   1.082       .  S
C717        C718   1.402       .  A
C718        C719   1.402       .  A
C718        H722   1.069       .  S
C719        C720   1.401       .  A
C719        C728   1.499       .  S
C720        H723   1.083       .  S
C724        C725   1.438       .  A
C724        C729   1.430       .  A
C724        C880   1.522       .  S
C725        C726   1.402       .  A
C725        H730   1.077       .  S
C726        C727   1.397       .  A
C727        C728   1.391       .  A
C727        H731   1.063       .  S
C728        C729   1.403       .  A
C729        H732   1.079       .  S
C733        C734   1.424       .  A
C733        C738   1.422       .  A
C733        C866   1.475       .  S
C734        C735   1.405       .  A
C734        H739   1.083       .  S
C735        C736   1.397       .  A
C735        C744   1.506       .  S
C736        C737   1.397       .  A
C736        H740   1.059       .  S
C737        C738   1.399       .  A
C737        C753   1.502       .  S
C738        H741   1.083       .  S
C742        C743   1.422       .  A
C742        C747   1.423       .  A
C742        C855   1.474       .  S
C743        C744   1.402       .  A
C743        H748   1.083       .  S
C744        C745   1.398       .  A
C745        C746   1.398       .  A
C745        H749   1.059       .  S
C746        C747   1.404       .  A
C746        C762   1.505       .  S
C747        H750   1.083       .  S
C751        C752   1.425       .  A
C751        C756   1.426       .  A
C751        C838   1.483       .  S
C752        C753   1.401       .  A
C752        H757   1.083       .  S
C753        C754   1.395       .  A
C754        C755   1.395       .  A
C754        H758   1.058       .  S
C755        C756   1.403       .  A
C755        C764   1.505       .  S
C756        H759   1.083       .  S
C760        C761   1.423       .  A
C760        C765   1.422       .  A
C760        C824   1.474       .  S
C761        C762   1.402       .  A
C761        H766   1.083       .  S
C762        C763   1.398       .  A
C763        C764   1.399       .  A
C763        H767   1.060       .  S
C764        C765   1.401       .  A
C765        H768   1.083       .  S
O769        C780   1.290       .  A
O770        C781   1.292       .  A
O771        C782   1.290       .  A
O771      Eu1107   2.457       .  S
O772        C783   1.289       .  A
O772       Eu777   2.448   1_554  S
O773        C783   1.293       .  A
O774        C782   1.291       .  A
O775        C781   1.291       .  A
O775       Eu777   2.461       .  S
O776        C780   1.294       .  A
O776      Eu2097   2.470   1_554  S
Eu777      O1101   2.457       .  S
Eu777      O2096   2.470   1_456  S
O778       Eu807   2.355       .  S
O778       Eu804   2.357       .  S
O779      Eu2455   2.360   1_455  S
O779       Eu806   2.359       .  S
C780        C981   1.488       .  S
C781        C939   1.497       .  S
C782        C852   1.470       .  S
C783        C827   1.471       .  S
H784        O785   0.964       .  S
O785       Eu806   2.342       .  S
O785      Eu1134   2.344       .  S
H786        O787   0.965       .  S
O787      Eu2125   2.347   1_455  S
O787       Eu807   2.345       .  S
O788        C811   1.293       .  A
O788       Eu804   2.463       .  S
O789        C812   1.293       .  A
O789       Eu805   2.461   1_556  S
O790        C813   1.294       .  A
O790       Eu806   2.469       .  S
O791        C814   1.291       .  A
O791       Eu807   2.456       .  S
O792        C815   1.288       .  A
O792      Eu2127   2.448       .  S
O793        C816   1.292       .  A
O793      Eu2126   2.461       .  S
O794        C817   1.292       .  A
O794      Eu1138   2.465       .  S
O795        C818   1.292       .  A
O795       Eu808   2.466       .  S
O796        C817   1.291       .  A
O796       Eu806   2.457       .  S
O797        C818   1.291       .  A
O797       Eu807   2.457       .  S
O798        C813   1.289       .  A
O798      Eu1134   2.447       .  S
O799        C816   1.294       .  A
O799      Eu1135   2.466       .  S
O800        C815   1.294       .  A
O800       Eu805   2.468       .  S
O801        C814   1.291       .  A
O801       Eu804   2.451       .  S
O802        C811   1.288       .  A
O802       Eu808   2.442       .  S
O803        C812   1.287   1_554  A
O803      Eu2128   2.442       .  S
Eu804      O1128   2.447   1_554  S
Eu804      O1115   2.344   1_554  S
Eu804       O822   2.338       .  S
Eu804      O1140   2.355   1_554  S
Eu805      O1129   2.466   1_554  S
Eu805      O2429   2.360   1_554  S
Eu805      O2107   2.347       .  S
Eu805      O2129   2.354       .  S
Eu805      O2470   2.341   1_554  S
Eu806      O2113   2.461   1_455  S
Eu806       O820   2.349       .  S
Eu806       O810   2.355       .  S
Eu807      O2112   2.448   1_455  S
Eu807       O809   2.358       .  S
Eu807       O822   2.346       .  S
Eu808      O1124   2.465   1_554  S
Eu808      O2123   2.442   1_455  S
Eu808       O809   2.349       .  S
Eu808      O1150   2.352   1_554  S
Eu808       O822   2.353       .  S
Eu808      O1140   2.351   1_554  S
O809      Eu2125   2.354   1_455  S
O810      Eu1134   2.355       .  S
O810      Eu1138   2.351       .  S
C811        C953   1.492       .  S
C812        C964   1.489       .  S
C813        C911   1.489       .  S
C814        C894   1.478       .  S
C815        C883   1.497       .  S
C816        C922   1.495       .  S
C817        C869   1.470       .  S
C818        C841   1.477       .  S
H819        O820   0.964       .  S
O820      Eu2455   2.341   1_455  S
O820      Eu1138   2.352       .  S
H821        O822   0.965       .  S
C823        C824   1.403       .  A
C823        C828   1.401       .  A
C823        H830   1.084       .  S
C824        C825   1.414       .  A
C825        C826   1.409       .  A
C825       N2152   1.444   1_455  S
C826        C827   1.406       .  A
C826       H2151   1.084   1_455  S
C827        C828   1.415       .  A
C828        N829   1.445       .  S
N829        O833   1.263       .  A
N829        O834   1.262       .  A
H831       C2146   1.084       .  S
N832       C2145   1.444       .  S
N832        O835   1.262       .  A
N832        O836   1.263       .  A
C837        C838   1.402       .  A
C837        C842   1.407       .  A
C837        H844   1.083       .  S
C838        C839   1.419       .  A
C839        C840   1.400       .  A
C839        N846   1.438       .  S
C840        C841   1.399       .  A
C840        H845   1.084       .  S
C841        C842   1.417       .  A
C842        N843   1.438       .  S
N843        O847   1.263       .  A
N843        O848   1.262       .  A
N846       O2169   1.263   1_455  A
N846        O850   1.263       .  A
O849       N2166   1.263       .  A
C851        C852   1.397       .  A
C851        C856   1.400       .  A
C851       H2178   1.084       .  S
C852        C853   1.418       .  A
C853        C854   1.409       .  A
C853        N860   1.443       .  S
C854        C855   1.401       .  A
C854        H859   1.083       .  S
C855        C856   1.418       .  A
C856       N2177   1.442   1_455  S
N857       C2176   1.442       .  S
N857        O861   1.263       .  A
N857        O862   1.262       .  A
H858       C2171   1.084       .  S
N860        O863   1.262       .  A
N860        O864   1.263       .  A
C865        C866   1.400       .  A
C865        C870   1.410       .  A
C865       H2192   1.083   1_455  S
C866        C867   1.417       .  A
C867        C868   1.399       .  A
C867        N874   1.441       .  S
C868        C869   1.397       .  A
C868        H873   1.084       .  S
C869        C870   1.420       .  A
C870       N2191   1.444   1_455  S
N871       C2190   1.444       .  S
N871        O875   1.263       .  A
N871        O876   1.262       .  A
H872       C2185   1.083       .  S
N874        O877   1.262       .  A
N874        O878   1.263       .  A
C879        C880   1.414       .  A
C879        C884   1.403       .  A
C879        H886   1.076       .  S
C880        C881   1.430       .  A
C881        C882   1.402       .  A
C881        N888   1.430       .  S
C882        C883   1.402       .  A
C882        H887   1.084       .  S
C883        C884   1.416       .  A
C884        N885   1.435       .  S
N885        O889   1.262       .  A
N885       O2210   1.263       .  A
N888        O891   1.263       .  A
N888        O892   1.262       .  A
O890       N2205   1.263       .  A
C893        C894   1.401       .  A
C893        C898   1.398       .  A
C893        H900   1.084       .  S
C894        C895   1.418       .  A
C895        C896   1.405       .  A
C896        C897   1.404       .  A
C896        H901   1.083       .  S
C897        C898   1.417       .  A
C898        N899   1.437       .  S
N899        O903   1.262       .  A
N899        O904   1.263       .  A
N902        O905   1.260   1_545  A
N902        O906   1.263   1_545  A
C907        C908   1.404       .  A
C907        C912   1.404       .  A
C907        H914   1.083       .  S
C908        C909   1.421       .  A
C909        C910   1.400       .  A
C909        N916   1.436       .  S
C910        C911   1.402       .  A
C910        H915   1.084       .  S
C911        C912   1.419       .  A
C912        N913   1.434       .  S
N913        O917   1.263       .  A
N913        O918   1.262       .  A
N916        O919   1.263       .  A
N916        O920   1.263       .  A
C921        C922   1.404       .  A
C921        C926   1.404       .  A
C921        H928   1.084       .  S
C922        C923   1.415       .  A
C923        C924   1.403       .  A
C923        N930   1.430       .  S
C924        C925   1.410       .  A
C924        H929   1.081       .  S
C925        C926   1.425       .  A
C926        N927   1.434       .  S
N927        O931   1.263       .  A
N927        O932   1.263       .  A
N930       O2253   1.261       .  A
N930        O934   1.262       .  A
O933       N2250   1.261       .  A
C935       C1266   1.418       .  A
C935        C940   1.404       .  A
C935        H942   1.076       .  S
C936       C1265   1.418       .  A
C936        C937   1.429       .  A
C937        C938   1.401       .  A
C937       N1274   1.426       .  S
C938        C939   1.403       .  A
C938        H943   1.084       .  S
C939       C1270   1.414       .  A
C940       C1269   1.414       .  A
C940       N1271   1.434       .  S
N941       C1270   1.434       .  S
N941       O1275   1.262       .  A
N941        O946   1.262   1_556  A
N944       C1267   1.426       .  S
N944        O947   1.262       .  A
N944       O1278   1.262       .  A
O945       N1271   1.262       .  A
O948       N1274   1.262   1_554  A
C949        C950   1.416       .  A
C949        C954   1.402   1_554  A
C949        H956   1.077   1_554  S
C950       C1281   1.430       .  A
C951       C1280   1.430       .  A
C951        C952   1.400       .  A
C951        N958   1.428       .  S
C952       C1283   1.400       .  A
C952        H957   1.084       .  S
C953       C1282   1.400       .  A
C953        C954   1.414   1_554  A
C954        N955   1.436       .  S
N955        O959   1.262   1_556  A
N955       O1290   1.263       .  A
N958       O1291   1.262       .  A
N958        O962   1.263       .  A
O960       N1285   1.263       .  A
O961       N1288   1.262       .  A
C963       C1294   1.402       .  A
C963        C968   1.399       .  A
C963        H970   1.084       .  S
C964       C1293   1.402       .  A
C964        C965   1.416       .  A
C965        C966   1.400       .  A
C965        N972   1.433       .  S
C966        C967   1.410       .  A
C966        H971   1.080       .  S
C967       C1298   1.425       .  A
C968       C1297   1.425       .  A
C968        N969   1.433       .  S
N969        O973   1.263       .  A
N969       O1304   1.262       .  A
N972       O2625   1.262       .  A
N972        O976   1.263   1_556  A
O974       N1299   1.262       .  A
O975       N2622   1.262       .  A
C977        C978   1.404       .  A
C977        C982   1.404       .  A
C977        H984   1.083       .  S
C978       C1309   1.421   1_554  A
C979       C1308   1.421       .  A
C979        C980   1.401       .  A
C979        N986   1.436       .  S
C980       C1311   1.402       .  A
C980        H985   1.084       .  S
C981       C1310   1.402   1_554  A
C981        C982   1.418       .  A
C982        N983   1.434       .  S
N983        O987   1.263       .  A
N986        O989   1.263       .  A
N986       O1320   1.263       .  A
O990       N1316   1.263       .  A
C991        C992   1.428       .  A
C991       C1308   1.493       .  S
C992        C993   1.401       .  A
C992        H997   1.083       .  S
C993       C1002   1.499       .  S
C994        C995   1.390       .  A
C994        H998   1.057       .  S
C995        C996   1.403   1_556  A
C996        H999   1.082       .  S
C1000      C1001   1.428       .  A
C1000      C1005   1.424       .  A
C1000      C1297   1.503       .  S
C1001      C1002   1.398       .  A
C1001      H1006   1.079       .  S
C1002      C1003   1.402       .  A
C1003      C1004   1.396       .  A
C1003      H1007   1.068       .  S
C1004      C1005   1.402       .  A
C1004      C1011   1.494       .  S
C1005      H1008   1.082       .  S
C1009      C1010   1.424       .  A
C1009      C1014   1.432       .  A
C1009      C1280   1.522       .  S
C1010      C1011   1.399       .  A
C1010      H1015   1.076       .  S
C1011      C1012   1.399       .  A
C1012      C1013   1.401       .  A
C1012      H1016   1.069       .  S
C1013      C1014   1.403       .  A
C1013      C1022   1.503       .  S
C1014      H1017   1.080       .  S
C1018      C1019   1.434       .  A
C1018      C1023   1.437       .  A
C1018      C1266   1.527       .  S
C1019      C1020   1.402       .  A
C1019      H1024   1.075       .  S
C1020      C1021   1.397       .  A
C1021      C1022   1.389       .  A
C1021      H1025   1.063       .  S
C1022      C1023   1.402       .  A
C1023      H1026   1.079       .  S
C1027      C1028   1.435       .  A
C1027      C1032   1.437       .  A
C1027      C1255   1.507       .  S
C1028      C1029   1.406       .  A
C1028      H1033   1.082       .  S
C1029      C1030   1.388       .  A
C1029      C1038   1.509       .  S
C1030      C1031   1.387       .  A
C1030      H1034   1.053       .  S
C1031      C1032   1.401       .  A
C1031      C1056   1.509       .  S
C1032      H1035   1.080       .  S
C1036      C1037   1.429       .  A
C1036      C1041   1.423       .  A
C1036      C1238   1.494       .  S
C1037      C1038   1.404       .  A
C1037      H1042   1.082       .  S
C1038      C1039   1.404       .  A
C1039      C1040   1.397       .  A
C1039      H1043   1.065       .  S
C1040      C1041   1.399       .  A
C1040      C1047   1.499       .  S
C1041      H1044   1.083       .  S
C1045      C1046   1.421       .  A
C1045      C1050   1.421       .  A
C1045      C1227   1.486       .  S
C1046      C1047   1.399       .  A
C1046      H1051   1.082       .  S
C1047      C1048   1.402       .  A
C1048      C1049   1.402       .  A
C1048      H1052   1.069       .  S
C1049      C1050   1.401       .  A
C1049      C1058   1.499       .  S
C1050      H1053   1.083       .  S
C1054      C1055   1.438       .  A
C1054      C1059   1.430       .  A
C1054      C1210   1.522       .  S
C1055      C1056   1.402       .  A
C1055      H1060   1.077       .  S
C1056      C1057   1.397       .  A
C1057      C1058   1.391       .  A
C1057      H1061   1.063       .  S
C1058      C1059   1.403       .  A
C1059      H1062   1.079       .  S
C1063      C1064   1.424       .  A
C1063      C1068   1.422       .  A
C1063      C1196   1.475       .  S
C1064      C1065   1.405       .  A
C1064      H1069   1.083       .  S
C1065      C1066   1.397       .  A
C1065      C1074   1.506       .  S
C1066      C1067   1.397       .  A
C1066      H1070   1.059       .  S
C1067      C1068   1.399       .  A
C1067      C1083   1.502       .  S
C1068      H1071   1.083       .  S
C1072      C1073   1.422       .  A
C1072      C1077   1.423       .  A
C1072      C1185   1.474       .  S
C1073      C1074   1.402       .  A
C1073      H1078   1.083       .  S
C1074      C1075   1.398       .  A
C1075      C1076   1.398       .  A
C1075      H1079   1.059       .  S
C1076      C1077   1.404       .  A
C1076      C1092   1.505       .  S
C1077      H1080   1.083       .  S
C1081      C1082   1.425       .  A
C1081      C1086   1.426       .  A
C1081      C1168   1.483       .  S
C1082      C1083   1.401       .  A
C1082      H1087   1.083       .  S
C1083      C1084   1.395       .  A
C1084      C1085   1.395       .  A
C1084      H1088   1.058       .  S
C1085      C1086   1.403       .  A
C1085      C1094   1.505       .  S
C1086      H1089   1.083       .  S
C1090      C1091   1.423       .  A
C1090      C1095   1.422       .  A
C1090      C1154   1.474       .  S
C1091      C1092   1.402       .  A
C1091      H1096   1.083       .  S
C1092      C1093   1.398       .  A
C1093      C1094   1.399       .  A
C1093      H1097   1.060       .  S
C1094      C1095   1.401       .  A
C1095      H1098   1.083       .  S
O1099      C1110   1.290       .  A
O1100      C1111   1.292       .  A
O1101      C1112   1.290       .  A
O1102      C1113   1.289       .  A
O1102     Eu1107   2.448       .  S
O1103      C1113   1.293       .  A
O1104      C1112   1.291       .  A
O1105      C1111   1.291       .  A
O1105     Eu1107   2.461       .  S
O1106      C1110   1.294       .  A
O1106     Eu2427   2.470       .  S
Eu1107     O2426   2.470   1_455  S
O1108     Eu1137   2.355       .  S
O1108     Eu1134   2.357       .  S
O1109     Eu2125   2.360   1_456  S
O1109     Eu1136   2.359       .  S
C1110      C1311   1.488       .  S
C1111      C1269   1.497       .  S
C1112      C1182   1.470       .  S
C1113      C1157   1.471       .  S
H1114      O1115   0.964       .  S
O1115     Eu1136   2.342       .  S
H1116      O1117   0.965       .  S
O1117     Eu2455   2.347   1_455  S
O1117     Eu1137   2.345       .  S
O1118      C1141   1.293       .  A
O1118     Eu1134   2.463       .  S
O1119      C1142   1.293       .  A
O1119     Eu1135   2.461       .  S
O1120      C1143   1.294       .  A
O1120     Eu1136   2.469       .  S
O1121      C1144   1.291       .  A
O1121     Eu1137   2.456       .  S
O1122      C1145   1.288       .  A
O1122     Eu2457   2.448       .  S
O1123      C1146   1.291       .  A
O1123     Eu2456   2.461       .  S
O1124      C1147   1.292       .  A
O1125      C1148   1.292       .  A
O1125     Eu1138   2.466       .  S
O1126      C1147   1.291       .  A
O1126     Eu1136   2.457       .  S
O1127      C1148   1.291       .  A
O1127     Eu1137   2.457       .  S
O1128      C1143   1.289       .  A
O1129      C1146   1.294       .  A
O1130      C1145   1.294       .  A
O1130     Eu1135   2.468       .  S
O1131      C1144   1.291       .  A
O1131     Eu1134   2.451       .  S
O1132      C1141   1.288       .  A
O1132     Eu1138   2.442       .  S
O1133      C1142   1.287       .  A
O1133     Eu2458   2.442       .  S
Eu1134     O1152   2.338       .  S
Eu1135     O2099   2.360       .  S
Eu1135     O2437   2.347       .  S
Eu1135     O2459   2.354       .  S
Eu1135     O2140   2.341       .  S
Eu1136     O2443   2.461   1_455  S
Eu1136     O1150   2.349       .  S
Eu1136     O1140   2.355       .  S
Eu1137     O2442   2.448   1_455  S
Eu1137     O1139   2.358       .  S
Eu1137     O1152   2.346       .  S
Eu1138     O2453   2.442   1_455  S
Eu1138     O1139   2.349       .  S
Eu1138     O1152   2.353       .  S
O1139     Eu2455   2.354   1_455  S
C1141      C1283   1.492       .  S
C1142      C1294   1.489       .  S
C1143      C1241   1.489       .  S
C1144      C1224   1.478       .  S
C1145      C1213   1.497       .  S
C1146      C1252   1.495       .  S
C1147      C1199   1.470       .  S
C1148      C1171   1.477       .  S
H1149      O1150   0.964       .  S
O1150     Eu2125   2.341   1_456  S
H1151      O1152   0.965       .  S
C1153      C1154   1.403       .  A
C1153      C1158   1.401       .  A
C1153      H1160   1.084       .  S
C1154      C1155   1.414       .  A
C1155      C1156   1.409       .  A
C1155      N2482   1.444   1_455  S
C1156      C1157   1.406       .  A
C1156      H2481   1.084   1_455  S
C1157      C1158   1.415       .  A
C1158      N1159   1.445       .  S
N1159      O1163   1.263       .  A
N1159      O1164   1.262       .  A
H1161      C2476   1.084       .  S
N1162      C2475   1.444       .  S
N1162      O1165   1.262       .  A
N1162      O1166   1.263       .  A
C1167      C1168   1.402       .  A
C1167      C1172   1.407       .  A
C1167      H1174   1.083       .  S
C1168      C1169   1.419       .  A
C1169      C1170   1.400       .  A
C1169      N1176   1.438       .  S
C1170      C1171   1.399       .  A
C1170      H1175   1.084       .  S
C1171      C1172   1.417       .  A
C1172      N1173   1.438       .  S
N1173      O1177   1.263       .  A
N1173      O1178   1.262       .  A
N1176      O2499   1.263   1_455  A
N1176      O1180   1.263       .  A
O1179      N2496   1.263       .  A
C1181      C1182   1.397       .  A
C1181      C1186   1.400       .  A
C1181      H2508   1.084       .  S
C1182      C1183   1.418       .  A
C1183      C1184   1.409       .  A
C1183      N1190   1.443       .  S
C1184      C1185   1.401       .  A
C1184      H1189   1.083       .  S
C1185      C1186   1.418       .  A
C1186      N2507   1.442   1_455  S
N1187      C2506   1.442       .  S
N1187      O1191   1.263       .  A
N1187      O1192   1.262       .  A
H1188      C2501   1.084       .  S
N1190      O1193   1.262       .  A
N1190      O1194   1.263       .  A
C1195      C1196   1.400       .  A
C1195      C1200   1.410       .  A
C1195      H2522   1.083   1_455  S
C1196      C1197   1.417       .  A
C1197      C1198   1.399       .  A
C1197      N1204   1.441       .  S
C1198      C1199   1.397       .  A
C1198      H1203   1.084       .  S
C1199      C1200   1.420       .  A
C1200      N2521   1.444   1_455  S
N1201      C2520   1.444       .  S
N1201      O1205   1.263       .  A
N1201      O1206   1.262       .  A
H1202      C2515   1.083       .  S
N1204      O1207   1.262       .  A
N1204      O1208   1.263       .  A
C1209      C1210   1.414       .  A
C1209      C1214   1.403       .  A
C1209      H1216   1.076       .  S
C1210      C1211   1.430       .  A
C1211      C1212   1.402       .  A
C1211      N1218   1.430       .  S
C1212      C1213   1.402       .  A
C1212      H1217   1.084       .  S
C1213      C1214   1.416       .  A
C1214      N1215   1.435       .  S
N1215      O1219   1.262       .  A
N1215      O2540   1.263       .  A
N1218      O1221   1.263       .  A
N1218      O1222   1.262       .  A
O1220      N2535   1.263       .  A
C1223      C1224   1.401       .  A
C1223      C1228   1.398       .  A
C1223      H1230   1.084       .  S
C1224      C1225   1.418       .  A
C1225      C1226   1.405       .  A
C1226      C1227   1.404       .  A
C1226      H1231   1.083       .  S
C1227      C1228   1.417       .  A
C1228      N1229   1.437       .  S
N1229      O1233   1.262       .  A
N1229      O1234   1.263       .  A
N1232      O1235   1.260   1_545  A
N1232      O1236   1.263   1_545  A
C1237      C1238   1.404       .  A
C1237      C1242   1.404       .  A
C1237      H1244   1.083       .  S
C1238      C1239   1.421       .  A
C1239      C1240   1.400       .  A
C1239      N1246   1.436       .  S
C1240      C1241   1.402       .  A
C1240      H1245   1.084       .  S
C1241      C1242   1.419       .  A
C1242      N1243   1.434       .  S
N1243      O1247   1.263       .  A
N1243      O1248   1.262       .  A
N1246      O1249   1.263       .  A
N1246      O1250   1.263       .  A
C1251      C1252   1.404       .  A
C1251      C1256   1.404       .  A
C1251      H1258   1.084       .  S
C1252      C1253   1.415       .  A
C1253      C1254   1.403       .  A
C1253      N1260   1.430       .  S
C1254      C1255   1.410       .  A
C1254      H1259   1.081       .  S
C1255      C1256   1.425       .  A
C1256      N1257   1.434       .  S
N1257      O1261   1.263       .  A
N1257      O1262   1.263       .  A
N1260      O2583   1.261       .  A
N1260      O1264   1.262       .  A
O1263      N2580   1.261       .  A
C1265      C1270   1.404       .  A
C1265      H1272   1.076       .  S
C1266      C1267   1.429       .  A
C1267      C1268   1.401       .  A
C1268      C1269   1.403       .  A
C1268      H1273   1.084       .  S
N1271      O1276   1.262       .  A
N1274      O1277   1.262       .  A
C1279      C1280   1.416       .  A
C1279      C1284   1.402       .  A
C1279      H1286   1.077       .  S
C1281      C1282   1.400       .  A
C1281      N1288   1.428       .  S
C1282      H1287   1.084       .  S
C1283      C1284   1.414       .  A
C1284      N1285   1.436       .  S
N1285      O1289   1.262       .  A
N1288      O1292   1.263   1_554  A
C1293      C1298   1.399       .  A
C1293      H1300   1.084   1_556  S
C1294      C1295   1.416       .  A
C1295      C1296   1.400       .  A
C1295      N1302   1.433       .  S
C1296      C1297   1.410       .  A
C1296      H1301   1.080       .  S
C1298      N1299   1.433   1_556  S
N1299      O1303   1.263   1_554  A
N1302      O2295   1.262       .  A
N1302      O1306   1.263       .  A
O1305      N2292   1.262       .  A
C1307      C1308   1.404       .  A
C1307      C1312   1.404       .  A
C1307      H1314   1.083       .  S
C1309      C1310   1.401       .  A
C1309      N1316   1.436       .  S
C1310      H1315   1.084       .  S
C1311      C1312   1.418       .  A
C1312      N1313   1.434       .  S
N1313      O1317   1.263       .  A
N1316      O1319   1.263       .  A
C1321      C1322   1.428       .  A
C1321      C1656   1.431       .  A
C1321      C1638   1.493       .  S
C1322      C1323   1.401       .  A
C1322      H1327   1.083       .  S
C1323      C1654   1.388   1_554  A
C1323      C1332   1.499       .  S
C1324      C1653   1.388       .  A
C1324      C1325   1.390       .  A
C1324      H1328   1.057       .  S
C1325      C1326   1.403       .  A
C1325      C1680   1.505       .  S
C1326      C1651   1.431       .  A
C1326      H1329   1.082       .  S
C1330      C1331   1.428   1_556  A
C1330      C1335   1.424       .  A
C1330      C1627   1.503       .  S
C1331      C1332   1.398       .  A
C1331      H1336   1.079   1_554  S
C1332      C1333   1.402       .  A
C1333      C1334   1.396       .  A
C1333      H1337   1.068       .  S
C1334      C1335   1.402   1_554  A
C1334      C1341   1.494   1_554  S
C1335      H1338   1.082       .  S
C1339      C1340   1.424       .  A
C1339      C1344   1.432       .  A
C1339      C1610   1.522       .  S
C1340      C1341   1.399   1_554  A
C1340      H1345   1.076       .  S
C1341      C1342   1.399       .  A
C1342      C1343   1.401       .  A
C1342      H1346   1.069       .  S
C1343      C1344   1.403   1_556  A
C1343      C1352   1.503       .  S
C1344      H1347   1.080       .  S
C1348      C1349   1.434       .  A
C1348      C1353   1.437       .  A
C1348      C1596   1.527       .  S
C1349      C1350   1.402       .  A
C1349      H1354   1.075       .  S
C1350      C1351   1.397   1_556  A
C1350      C1655   1.505       .  S
C1351      C1352   1.389   1_554  A
C1351      H1355   1.063       .  S
C1352      C1353   1.402       .  A
C1353      H1356   1.079       .  S
C1357      C1358   1.435       .  A
C1357      C1362   1.437       .  A
C1357      C1585   1.507       .  S
C1358      C1359   1.406       .  A
C1358      H1363   1.082       .  S
C1359      C1360   1.388       .  A
C1359      C1368   1.509       .  S
C1360      C1361   1.387       .  A
C1360      H1364   1.053       .  S
C1361      C1362   1.401       .  A
C1361      C1386   1.509       .  S
C1362      H1365   1.080       .  S
C1366      C1367   1.429       .  A
C1366      C1371   1.423       .  A
C1366      C1568   1.494       .  S
C1367      C1368   1.404       .  A
C1367      H1372   1.082       .  S
C1368      C1369   1.404       .  A
C1369      C1370   1.397       .  A
C1369      H1373   1.065       .  S
C1370      C1371   1.399       .  A
C1370      C1377   1.499       .  S
C1371      H1374   1.083       .  S
C1375      C1376   1.421       .  A
C1375      C1380   1.421       .  A
C1375      C1557   1.486       .  S
C1376      C1377   1.399       .  A
C1376      H1381   1.082       .  S
C1377      C1378   1.402       .  A
C1378      C1379   1.402       .  A
C1378      H1382   1.069       .  S
C1379      C1380   1.401       .  A
C1379      C1388   1.499       .  S
C1380      H1383   1.083       .  S
C1384      C1385   1.438       .  A
C1384      C1389   1.430       .  A
C1384      C1540   1.522       .  S
C1385      C1386   1.402       .  A
C1385      H1390   1.077       .  S
C1386      C1387   1.397       .  A
C1387      C1388   1.391       .  A
C1387      H1391   1.063       .  S
C1388      C1389   1.403       .  A
C1389      H1392   1.079       .  S
C1393      C1394   1.424       .  A
C1393      C1398   1.422       .  A
C1393      C1526   1.475       .  S
C1394      C1395   1.405       .  A
C1394      H1399   1.083       .  S
C1395      C1396   1.397       .  A
C1395      C1404   1.506       .  S
C1396      C1397   1.397       .  A
C1396      H1400   1.059       .  S
C1397      C1398   1.399       .  A
C1397      C1413   1.502       .  S
C1398      H1401   1.083       .  S
C1402      C1403   1.422       .  A
C1402      C1407   1.423       .  A
C1402      C1515   1.474       .  S
C1403      C1404   1.402       .  A
C1403      H1408   1.083       .  S
C1404      C1405   1.398       .  A
C1405      C1406   1.398       .  A
C1405      H1409   1.059       .  S
C1406      C1407   1.404       .  A
C1406      C1422   1.505       .  S
C1407      H1410   1.083       .  S
C1411      C1412   1.425       .  A
C1411      C1416   1.426       .  A
C1411      C1498   1.483       .  S
C1412      C1413   1.401       .  A
C1412      H1417   1.083       .  S
C1413      C1414   1.395       .  A
C1414      C1415   1.395       .  A
C1414      H1418   1.058       .  S
C1415      C1416   1.403       .  A
C1415      C1424   1.505       .  S
C1416      H1419   1.083       .  S
C1420      C1421   1.423       .  A
C1420      C1425   1.422       .  A
C1420      C1484   1.474       .  S
C1421      C1422   1.402       .  A
C1421      H1426   1.083       .  S
C1422      C1423   1.398       .  A
C1423      C1424   1.399       .  A
C1423      H1427   1.060       .  S
C1424      C1425   1.401       .  A
C1425      H1428   1.083       .  S
O1429      C1440   1.290       .  A
O1429     Eu2125   2.451       .  S
O1430      C1441   1.292       .  A
O1430     Eu2124   2.458   1_556  S
O1431      C1442   1.291       .  A
O1431     Eu1767   2.458       .  S
O1432      C1443   1.289       .  A
O1432     Eu1437   2.447   1_554  S
O1433      C1443   1.293       .  A
O1433     Eu2127   2.474       .  S
O1434      C1442   1.291       .  A
O1434     Eu2126   2.464       .  S
O1435      C1441   1.291       .  A
O1435     Eu1437   2.462       .  S
O1436      C1440   1.294       .  A
Eu1437     O1761   2.458       .  S
Eu1437     O2107   2.356   1_556  S
Eu1437     O2429   2.350       .  S
Eu1437     O2098   2.357   1_556  S
Eu1437     O2435   2.354       .  S
O1438     Eu2097   2.357   1_544  S
O1438     Eu1467   2.355       .  S
O1438     Eu1464   2.357       .  S
O1439     Eu2427   2.350   1_545  S
O1439     Eu1466   2.360       .  S
C1440      C1641   1.488       .  S
C1441      C1599   1.497       .  S
C1442      C1512   1.470       .  S
C1443      C1487   1.471       .  S
H1444      O1445   0.964       .  S
O1445     Eu2427   2.354   1_545  S
O1445     Eu1466   2.342       .  S
O1445     Eu1794   2.344       .  S
H1446      O1447   0.967   1_565  S
O1447     Eu2097   2.352   1_544  S
O1447     Eu1467   2.341       .  S
O1448      C1471   1.293       .  A
O1448     Eu1464   2.463       .  S
O1449      C1472   1.293       .  A
O1449     Eu1465   2.461   1_556  S
O1450      C1473   1.294       .  A
O1450     Eu1466   2.469       .  S
O1451      C1474   1.291       .  A
O1451     Eu1467   2.455       .  S
O1452      C1475   1.288       .  A
O1453      C1476   1.291       .  A
O1454      C1477   1.292       .  A
O1454     Eu1798   2.465       .  S
O1455      C1478   1.292       .  A
O1455     Eu1468   2.466       .  S
O1456      C1477   1.291       .  A
O1456     Eu1466   2.457       .  S
O1457      C1478   1.291       .  A
O1457     Eu1467   2.456       .  S
O1458      C1473   1.289       .  A
O1458     Eu1794   2.447       .  S
O1459      C1476   1.294       .  A
O1459     Eu1795   2.466       .  S
O1460      C1475   1.294       .  A
O1460     Eu1465   2.467       .  S
O1461      C1474   1.291       .  A
O1461     Eu1464   2.451       .  S
O1462      C1471   1.288       .  A
O1462     Eu1468   2.442       .  S
O1463      C1472   1.287   1_554  A
Eu1464     O2090   2.458   1_544  S
Eu1464     O1788   2.447   1_554  S
Eu1464     O1775   2.344   1_554  S
Eu1464     O1482   2.338       .  S
Eu1464     O1800   2.355   1_554  S
Eu1465     O2089   2.450   1_545  S
Eu1465     O1789   2.466   1_554  S
Eu1466     O2094   2.464   1_545  S
Eu1466     O1480   2.349       .  S
Eu1466     O1470   2.355       .  S
Eu1467     O2093   2.475   1_545  S
Eu1467     O1469   2.358       .  S
Eu1467     O1482   2.345       .  S
Eu1468     O1784   2.465   1_554  S
Eu1468     O1469   2.349       .  S
Eu1468     O1810   2.352   1_554  S
Eu1468     O1482   2.353       .  S
Eu1468     O1800   2.351   1_554  S
O1470     Eu1794   2.355       .  S
O1470     Eu1798   2.351       .  S
C1471      C1613   1.492       .  S
C1472      C1624   1.489       .  S
C1473      C1571   1.489       .  S
C1474      C1554   1.478       .  S
C1475      C1543   1.497       .  S
C1476      C1582   1.495       .  S
C1477      C1529   1.470       .  S
C1478      C1501   1.477       .  S
H1479      O1480   0.964       .  S
O1480     Eu1798   2.352       .  S
H1481      O1482   0.965       .  S
C1483      C1484   1.403       .  A
C1483      C1488   1.401       .  A
C1483      H1490   1.084       .  S
C1484      C1485   1.414       .  A
C1485      C1486   1.409       .  A
C1486      C1487   1.406       .  A
C1487      C1488   1.415       .  A
C1488      N1489   1.445       .  S
N1489      O1493   1.263       .  A
N1489      O1494   1.262       .  A
N1492      O1495   1.262       .  A
N1492      O1496   1.263       .  A
C1497      C1498   1.402       .  A
C1497      C1502   1.406       .  A
C1497      H1504   1.083       .  S
C1498      C1499   1.419       .  A
C1499      C1500   1.400       .  A
C1499      N1506   1.438       .  S
C1500      C1501   1.399       .  A
C1500      H1505   1.084       .  S
C1501      C1502   1.417       .  A
C1502      N1503   1.438       .  S
N1503      O1507   1.263       .  A
N1503      O1508   1.262       .  A
N1506      O1510   1.263       .  A
C1511      C1512   1.397       .  A
C1511      C1516   1.400       .  A
C1512      C1513   1.418       .  A
C1513      C1514   1.409       .  A
C1513      N1520   1.443       .  S
C1514      C1515   1.401       .  A
C1514      H1519   1.083       .  S
C1515      C1516   1.418       .  A
N1517      O1521   1.263       .  A
N1517      O1522   1.262       .  A
N1520      O1523   1.262       .  A
N1520      O1524   1.263       .  A
C1525      C1526   1.400       .  A
C1525      C1530   1.410       .  A
C1526      C1527   1.417       .  A
C1527      C1528   1.399       .  A
C1527      N1534   1.441       .  S
C1528      C1529   1.397       .  A
C1528      H1533   1.084       .  S
C1529      C1530   1.420       .  A
N1531      O1535   1.263       .  A
N1531      O1536   1.262       .  A
N1534      O1537   1.262       .  A
N1534      O1538   1.263       .  A
C1539      C1540   1.414       .  A
C1539      C1544   1.403       .  A
C1539      H1546   1.076       .  S
C1540      C1541   1.430       .  A
C1541      C1542   1.402       .  A
C1541      N1548   1.430       .  S
C1542      C1543   1.402       .  A
C1542      H1547   1.084       .  S
C1543      C1544   1.416       .  A
C1544      N1545   1.435       .  S
N1545      O1549   1.262       .  A
N1548      O1551   1.263       .  A
N1548      O1552   1.262       .  A
C1553      C1554   1.401       .  A
C1553      C1558   1.398       .  A
C1553      H1560   1.084       .  S
C1554      C1555   1.418       .  A
C1555      C1556   1.405       .  A
C1555      N2222   1.439       .  S
C1556      C1557   1.404       .  A
C1556      H1561   1.083       .  S
C1557      C1558   1.417       .  A
C1558      N1559   1.437       .  S
N1559      O1563   1.262       .  A
N1559      O1564   1.263       .  A
N1562      C2215   1.439       .  S
N1562      O1565   1.260       .  A
N1562      O1566   1.263       .  A
C1567      C1568   1.404       .  A
C1567      C1572   1.404       .  A
C1567      H1574   1.083       .  S
C1568      C1569   1.421       .  A
C1569      C1570   1.400       .  A
C1569      N1576   1.436       .  S
C1570      C1571   1.402       .  A
C1570      H1575   1.084       .  S
C1571      C1572   1.419       .  A
C1572      N1573   1.434       .  S
N1573      O1577   1.263       .  A
N1573      O1578   1.262       .  A
N1576      O1579   1.263       .  A
N1576      O1580   1.263       .  A
C1581      C1582   1.404       .  A
C1581      C1586   1.404       .  A
C1581      H1588   1.084       .  S
C1582      C1583   1.415       .  A
C1583      C1584   1.403       .  A
C1583      N1590   1.430       .  S
C1584      C1585   1.410       .  A
C1584      H1589   1.081       .  S
C1585      C1586   1.425       .  A
C1586      N1587   1.434       .  S
N1587      O1591   1.263       .  A
N1587      O1592   1.263       .  A
N1590      O1594   1.262       .  A
C1595      C1926   1.418       .  A
C1595      C1600   1.404       .  A
C1595      H1602   1.076       .  S
C1596      C1925   1.418       .  A
C1596      C1597   1.429       .  A
C1597      C1598   1.401       .  A
C1597      N1934   1.426       .  S
C1598      C1599   1.403       .  A
C1598      H1603   1.084       .  S
C1599      C1930   1.414       .  A
C1600      C1929   1.414       .  A
C1600      N1931   1.434       .  S
N1601      C1930   1.434       .  S
N1601      O1935   1.262       .  A
N1601      O1606   1.262   1_556  A
N1604      C1927   1.426       .  S
N1604      O1607   1.262       .  A
N1604      O1938   1.262       .  A
O1605      N1931   1.262       .  A
O1608      N1934   1.262   1_554  A
C1609      C1610   1.416       .  A
C1609      C1614   1.402   1_554  A
C1609      H1616   1.077   1_554  S
C1610      C1941   1.430       .  A
C1611      C1940   1.430       .  A
C1611      C1612   1.400       .  A
C1611      N1618   1.428       .  S
C1612      C1943   1.400       .  A
C1612      H1617   1.084       .  S
C1613      C1942   1.400       .  A
C1613      C1614   1.414   1_554  A
C1614      N1615   1.436       .  S
N1615      O1619   1.262   1_556  A
N1615      O1950   1.263       .  A
N1618      O1951   1.262       .  A
N1618      O1622   1.263       .  A
O1620      N1945   1.263       .  A
O1621      N1948   1.262       .  A
C1623      C1954   1.402       .  A
C1623      C1628   1.399       .  A
C1623      H1630   1.084       .  S
C1624      C1953   1.402       .  A
C1624      C1625   1.416       .  A
C1625      C1626   1.400       .  A
C1625      N1632   1.433       .  S
C1626      C1627   1.410       .  A
C1626      H1631   1.080       .  S
C1627      C1958   1.425       .  A
C1628      C1957   1.425       .  A
C1628      N1629   1.433       .  S
N1629      O1633   1.263       .  A
N1629      O1964   1.262       .  A
N1632      O1636   1.263   1_556  A
O1634      N1959   1.262       .  A
C1637      C1638   1.404       .  A
C1637      C1642   1.404       .  A
C1637      H1644   1.083       .  S
C1638      C1969   1.421   1_554  A
C1639      C1968   1.421       .  A
C1639      C1640   1.401       .  A
C1639      N1646   1.436       .  S
C1640      C1971   1.402       .  A
C1640      H1645   1.084       .  S
C1641      C1970   1.402   1_554  A
C1641      C1642   1.418       .  A
C1642      N1643   1.434       .  S
N1643      O1647   1.263       .  A
N1643      O2308   1.262       .  A
N1646      O1649   1.263       .  A
N1646      O1980   1.263       .  A
O1648      N2303   1.262       .  A
O1650      N1976   1.263       .  A
C1651      C1652   1.428       .  A
C1651      C1968   1.493       .  S
C1652      C1653   1.401       .  A
C1652      H1657   1.083       .  S
C1653      C1662   1.499       .  S
C1654      C1655   1.390       .  A
C1654      H1658   1.057       .  S
C1655      C1656   1.403   1_556  A
C1656      H1659   1.082       .  S
C1660      C1661   1.428       .  A
C1660      C1665   1.424       .  A
C1660      C1957   1.503       .  S
C1661      C1662   1.398       .  A
C1661      H1666   1.079       .  S
C1662      C1663   1.402       .  A
C1663      C1664   1.396       .  A
C1663      H1667   1.068       .  S
C1664      C1665   1.402       .  A
C1664      C1671   1.494       .  S
C1665      H1668   1.082       .  S
C1669      C1670   1.424       .  A
C1669      C1674   1.432       .  A
C1669      C1940   1.522       .  S
C1670      C1671   1.399       .  A
C1670      H1675   1.076       .  S
C1671      C1672   1.399       .  A
C1672      C1673   1.401       .  A
C1672      H1676   1.069       .  S
C1673      C1674   1.403       .  A
C1673      C1682   1.503       .  S
C1674      H1677   1.080       .  S
C1678      C1679   1.434       .  A
C1678      C1683   1.437       .  A
C1678      C1926   1.527       .  S
C1679      C1680   1.402       .  A
C1679      H1684   1.075       .  S
C1680      C1681   1.397       .  A
C1681      C1682   1.389       .  A
C1681      H1685   1.063       .  S
C1682      C1683   1.402       .  A
C1683      H1686   1.079       .  S
C1687      C1688   1.435       .  A
C1687      C1692   1.437       .  A
C1687      C1915   1.507       .  S
C1688      C1689   1.406       .  A
C1688      H1693   1.082       .  S
C1689      C1690   1.388       .  A
C1689      C1698   1.509       .  S
C1690      C1691   1.387       .  A
C1690      H1694   1.053       .  S
C1691      C1692   1.401       .  A
C1691      C1716   1.509       .  S
C1692      H1695   1.080       .  S
C1696      C1697   1.429       .  A
C1696      C1701   1.423       .  A
C1696      C1898   1.494       .  S
C1697      C1698   1.404       .  A
C1697      H1702   1.082       .  S
C1698      C1699   1.404       .  A
C1699      C1700   1.397       .  A
C1699      H1703   1.065       .  S
C1700      C1701   1.399       .  A
C1700      C1707   1.499       .  S
C1701      H1704   1.083       .  S
C1705      C1706   1.421       .  A
C1705      C1710   1.421       .  A
C1705      C1887   1.486       .  S
C1706      C1707   1.399       .  A
C1706      H1711   1.082       .  S
C1707      C1708   1.402       .  A
C1708      C1709   1.402       .  A
C1708      H1712   1.069       .  S
C1709      C1710   1.401       .  A
C1709      C1718   1.499       .  S
C1710      H1713   1.083       .  S
C1714      C1715   1.438       .  A
C1714      C1719   1.430       .  A
C1714      C1870   1.522       .  S
C1715      C1716   1.402       .  A
C1715      H1720   1.077       .  S
C1716      C1717   1.397       .  A
C1717      C1718   1.391       .  A
C1717      H1721   1.063       .  S
C1718      C1719   1.403       .  A
C1719      H1722   1.079       .  S
C1723      C1724   1.424       .  A
C1723      C1728   1.422       .  A
C1723      C1856   1.475       .  S
C1724      C1725   1.405       .  A
C1724      H1729   1.083       .  S
C1725      C1726   1.397       .  A
C1725      C1734   1.506       .  S
C1726      C1727   1.397       .  A
C1726      H1730   1.059       .  S
C1727      C1728   1.399       .  A
C1727      C1743   1.502       .  S
C1728      H1731   1.083       .  S
C1732      C1733   1.422       .  A
C1732      C1737   1.423       .  A
C1732      C1845   1.474       .  S
C1733      C1734   1.402       .  A
C1733      H1738   1.083       .  S
C1734      C1735   1.398       .  A
C1735      C1736   1.398       .  A
C1735      H1739   1.059       .  S
C1736      C1737   1.404       .  A
C1736      C1752   1.505       .  S
C1737      H1740   1.083       .  S
C1741      C1742   1.425       .  A
C1741      C1746   1.426       .  A
C1741      C1828   1.483       .  S
C1742      C1743   1.401       .  A
C1742      H1747   1.083       .  S
C1743      C1744   1.395       .  A
C1744      C1745   1.395       .  A
C1744      H1748   1.058       .  S
C1745      C1746   1.403       .  A
C1745      C1754   1.505       .  S
C1746      H1749   1.083       .  S
C1750      C1751   1.423       .  A
C1750      C1755   1.422       .  A
C1750      C1814   1.474       .  S
C1751      C1752   1.402       .  A
C1751      H1756   1.083       .  S
C1752      C1753   1.398       .  A
C1753      C1754   1.399       .  A
C1753      H1757   1.060       .  S
C1754      C1755   1.401       .  A
C1755      H1758   1.083       .  S
O1759      C1770   1.290       .  A
O1759     Eu2455   2.451       .  S
O1760      C1771   1.292       .  A
O1760     Eu2454   2.458       .  S
O1761      C1772   1.291       .  A
O1762      C1773   1.289       .  A
O1762     Eu1767   2.447       .  S
O1763      C1773   1.293       .  A
O1763     Eu2457   2.474       .  S
O1764      C1772   1.291       .  A
O1764     Eu2456   2.464       .  S
O1765      C1771   1.291       .  A
O1765     Eu1767   2.462       .  S
O1766      C1770   1.294       .  A
Eu1767     O2437   2.356       .  S
Eu1767     O2099   2.350       .  S
Eu1767     O2428   2.357       .  S
Eu1767     O2105   2.354       .  S
O1768     Eu2427   2.357   1_545  S
O1768     Eu1797   2.355       .  S
O1768     Eu1794   2.357       .  S
O1769     Eu2097   2.350   1_545  S
O1769     Eu1796   2.360       .  S
C1770      C1971   1.488       .  S
C1771      C1929   1.497       .  S
C1772      C1842   1.470       .  S
C1773      C1817   1.471       .  S
H1774      O1775   0.964       .  S
O1775     Eu2097   2.354   1_545  S
O1775     Eu1796   2.342       .  S
H1776      O1777   0.967   1_565  S
O1777     Eu2427   2.352   1_545  S
O1777     Eu1797   2.341       .  S
O1778      C1801   1.293       .  A
O1778     Eu1794   2.463       .  S
O1779      C1802   1.293       .  A
O1779     Eu1795   2.461       .  S
O1780      C1803   1.294       .  A
O1780     Eu1796   2.469       .  S
O1781      C1804   1.291       .  A
O1781     Eu1797   2.455       .  S
O1782      C1805   1.288       .  A
O1783      C1806   1.291       .  A
O1784      C1807   1.292       .  A
O1785      C1808   1.292       .  A
O1785     Eu1798   2.466       .  S
O1786      C1807   1.291       .  A
O1786     Eu1796   2.457       .  S
O1787      C1808   1.291       .  A
O1787     Eu1797   2.456       .  S
O1788      C1803   1.289       .  A
O1789      C1806   1.294       .  A
O1790      C1805   1.294       .  A
O1790     Eu1795   2.467       .  S
O1791      C1804   1.291       .  A
O1791     Eu1794   2.451       .  S
O1792      C1801   1.288       .  A
O1792     Eu1798   2.442       .  S
O1793      C1802   1.287       .  A
Eu1794     O2420   2.458   1_545  S
Eu1794     O1812   2.338       .  S
Eu1795     O2419   2.450   1_545  S
Eu1796     O2424   2.464   1_545  S
Eu1796     O1810   2.349       .  S
Eu1796     O1800   2.355       .  S
Eu1797     O2423   2.475   1_545  S
Eu1797     O1799   2.358       .  S
Eu1797     O1812   2.345       .  S
Eu1798     O1799   2.349       .  S
Eu1798     O1812   2.353       .  S
C1801      C1943   1.492       .  S
C1802      C1954   1.489       .  S
C1803      C1901   1.489       .  S
C1804      C1884   1.478       .  S
C1805      C1873   1.497       .  S
C1806      C1912   1.495       .  S
C1807      C1859   1.470       .  S
C1808      C1831   1.477       .  S
H1809      O1810   0.964       .  S
H1811      O1812   0.965       .  S
C1813      C1814   1.403       .  A
C1813      C1818   1.401       .  A
C1813      H1820   1.084       .  S
C1814      C1815   1.414       .  A
C1815      C1816   1.409       .  A
C1816      C1817   1.406       .  A
C1817      C1818   1.415       .  A
C1818      N1819   1.445       .  S
N1819      O1823   1.263       .  A
N1819      O1824   1.262       .  A
N1822      O1825   1.262       .  A
N1822      O1826   1.263       .  A
C1827      C1828   1.402       .  A
C1827      C1832   1.406       .  A
C1827      H1834   1.083       .  S
C1828      C1829   1.419       .  A
C1829      C1830   1.400       .  A
C1829      N1836   1.438       .  S
C1830      C1831   1.399       .  A
C1830      H1835   1.084       .  S
C1831      C1832   1.417       .  A
C1832      N1833   1.438       .  S
N1833      O1837   1.263       .  A
N1833      O1838   1.262       .  A
N1836      O1840   1.263       .  A
C1841      C1842   1.397       .  A
C1841      C1846   1.400       .  A
C1842      C1843   1.418       .  A
C1843      C1844   1.409       .  A
C1843      N1850   1.443       .  S
C1844      C1845   1.401       .  A
C1844      H1849   1.083       .  S
C1845      C1846   1.418       .  A
N1847      O1851   1.263       .  A
N1847      O1852   1.262       .  A
N1850      O1853   1.262       .  A
N1850      O1854   1.263       .  A
C1855      C1856   1.400       .  A
C1855      C1860   1.410       .  A
C1856      C1857   1.417       .  A
C1857      C1858   1.399       .  A
C1857      N1864   1.441       .  S
C1858      C1859   1.397       .  A
C1858      H1863   1.084       .  S
C1859      C1860   1.420       .  A
N1861      O1865   1.263       .  A
N1861      O1866   1.262       .  A
N1864      O1867   1.262       .  A
N1864      O1868   1.263       .  A
C1869      C1870   1.414       .  A
C1869      C1874   1.403       .  A
C1869      H1876   1.076       .  S
C1870      C1871   1.430       .  A
C1871      C1872   1.402       .  A
C1871      N1878   1.430       .  S
C1872      C1873   1.402       .  A
C1872      H1877   1.084       .  S
C1873      C1874   1.416       .  A
C1874      N1875   1.435       .  S
N1875      O1879   1.262       .  A
N1878      O1881   1.263       .  A
N1878      O1882   1.262       .  A
C1883      C1884   1.401       .  A
C1883      C1888   1.398       .  A
C1883      H1890   1.084       .  S
C1884      C1885   1.418       .  A
C1885      C1886   1.405       .  A
C1885      N2552   1.439       .  S
C1886      C1887   1.404       .  A
C1886      H1891   1.083       .  S
C1887      C1888   1.417       .  A
C1888      N1889   1.437       .  S
N1889      O1893   1.262       .  A
N1889      O1894   1.263       .  A
N1892      C2545   1.439       .  S
N1892      O1895   1.260       .  A
N1892      O1896   1.263       .  A
C1897      C1898   1.404       .  A
C1897      C1902   1.404       .  A
C1897      H1904   1.083       .  S
C1898      C1899   1.421       .  A
C1899      C1900   1.400       .  A
C1899      N1906   1.436       .  S
C1900      C1901   1.402       .  A
C1900      H1905   1.084       .  S
C1901      C1902   1.419       .  A
C1902      N1903   1.434       .  S
N1903      O1907   1.263       .  A
N1903      O1908   1.262       .  A
N1906      O1909   1.263       .  A
N1906      O1910   1.263       .  A
C1911      C1912   1.404       .  A
C1911      C1916   1.404       .  A
C1911      H1918   1.084       .  S
C1912      C1913   1.415       .  A
C1913      C1914   1.403       .  A
C1913      N1920   1.430       .  S
C1914      C1915   1.410       .  A
C1914      H1919   1.081       .  S
C1915      C1916   1.425       .  A
C1916      N1917   1.434       .  S
N1917      O1921   1.263       .  A
N1917      O1922   1.263       .  A
N1920      O1924   1.262       .  A
C1925      C1930   1.404       .  A
C1925      H1932   1.076       .  S
C1926      C1927   1.429       .  A
C1927      C1928   1.401       .  A
C1928      C1929   1.403       .  A
C1928      H1933   1.084       .  S
N1931      O1936   1.262       .  A
N1934      O1937   1.262       .  A
C1939      C1940   1.416       .  A
C1939      C1944   1.402       .  A
C1939      H1946   1.077       .  S
C1941      C1942   1.400       .  A
C1941      N1948   1.428       .  S
C1942      H1947   1.084       .  S
C1943      C1944   1.414       .  A
C1944      N1945   1.436       .  S
N1945      O1949   1.262       .  A
N1948      O1952   1.263   1_554  A
C1953      C1958   1.399       .  A
C1953      H1960   1.084   1_556  S
C1954      C1955   1.416       .  A
C1955      C1956   1.400       .  A
C1955      N1962   1.433       .  S
C1956      C1957   1.410       .  A
C1956      H1961   1.080       .  S
C1958      N1959   1.433   1_556  S
N1959      O1963   1.263   1_554  A
N1962      O1966   1.263       .  A
C1967      C1968   1.404       .  A
C1967      C1972   1.404       .  A
C1967      H1974   1.083       .  S
C1969      C1970   1.401       .  A
C1969      N1976   1.436       .  S
C1970      H1975   1.084       .  S
C1971      C1972   1.418       .  A
C1972      N1973   1.434       .  S
N1973      O1977   1.263       .  A
N1973      O2638   1.262       .  A
N1976      O1979   1.263       .  A
O1978      N2633   1.262       .  A
C1981      C1982   1.428       .  A
C1981      C2316   1.431       .  A
C1981      C2298   1.493       .  S
C1982      C1983   1.401       .  A
C1982      H1987   1.083       .  S
C1983      C2314   1.388   1_554  A
C1983      C1992   1.499       .  S
C1984      C2313   1.388       .  A
C1984      C1985   1.390       .  A
C1984      H1988   1.057       .  S
C1985      C1986   1.403       .  A
C1985      C2340   1.505       .  S
C1986      C2311   1.431       .  A
C1986      H1989   1.082       .  S
C1990      C1991   1.428   1_556  A
C1990      C1995   1.424       .  A
C1990      C2287   1.503       .  S
C1991      C1992   1.398       .  A
C1991      H1996   1.079   1_554  S
C1992      C1993   1.402       .  A
C1993      C1994   1.396       .  A
C1993      H1997   1.068       .  S
C1994      C1995   1.402   1_554  A
C1994      C2001   1.494   1_554  S
C1995      H1998   1.082       .  S
C1999      C2000   1.424       .  A
C1999      C2004   1.432       .  A
C1999      C2270   1.522       .  S
C2000      C2001   1.399   1_554  A
C2000      H2005   1.076       .  S
C2001      C2002   1.399       .  A
C2002      C2003   1.401       .  A
C2002      H2006   1.069       .  S
C2003      C2004   1.403   1_556  A
C2003      C2012   1.503       .  S
C2004      H2007   1.080       .  S
C2008      C2009   1.434       .  A
C2008      C2013   1.437       .  A
C2008      C2256   1.527       .  S
C2009      C2010   1.402       .  A
C2009      H2014   1.075       .  S
C2010      C2011   1.397   1_556  A
C2010      C2315   1.505       .  S
C2011      C2012   1.389   1_554  A
C2011      H2015   1.063       .  S
C2012      C2013   1.402       .  A
C2013      H2016   1.079       .  S
C2017      C2018   1.435       .  A
C2017      C2022   1.437       .  A
C2017      C2245   1.507       .  S
C2018      C2019   1.406       .  A
C2018      H2023   1.082       .  S
C2019      C2020   1.388       .  A
C2019      C2028   1.509       .  S
C2020      C2021   1.387       .  A
C2020      H2024   1.053       .  S
C2021      C2022   1.401       .  A
C2021      C2046   1.509       .  S
C2022      H2025   1.080       .  S
C2026      C2027   1.429       .  A
C2026      C2031   1.423       .  A
C2026      C2228   1.494       .  S
C2027      C2028   1.404       .  A
C2027      H2032   1.082       .  S
C2028      C2029   1.404       .  A
C2029      C2030   1.397       .  A
C2029      H2033   1.065       .  S
C2030      C2031   1.399       .  A
C2030      C2037   1.499       .  S
C2031      H2034   1.083       .  S
C2035      C2036   1.421       .  A
C2035      C2040   1.421       .  A
C2035      C2217   1.486       .  S
C2036      C2037   1.399       .  A
C2036      H2041   1.082       .  S
C2037      C2038   1.402       .  A
C2038      C2039   1.402       .  A
C2038      H2042   1.069       .  S
C2039      C2040   1.401       .  A
C2039      C2048   1.499       .  S
C2040      H2043   1.083       .  S
C2044      C2045   1.438       .  A
C2044      C2049   1.430       .  A
C2044      C2200   1.522       .  S
C2045      C2046   1.402       .  A
C2045      H2050   1.077       .  S
C2046      C2047   1.397       .  A
C2047      C2048   1.391       .  A
C2047      H2051   1.063       .  S
C2048      C2049   1.403       .  A
C2049      H2052   1.079       .  S
C2053      C2054   1.424       .  A
C2053      C2058   1.422       .  A
C2053      C2186   1.475       .  S
C2054      C2055   1.405       .  A
C2054      H2059   1.083       .  S
C2055      C2056   1.397       .  A
C2055      C2064   1.506       .  S
C2056      C2057   1.397       .  A
C2056      H2060   1.059       .  S
C2057      C2058   1.399       .  A
C2057      C2073   1.502       .  S
C2058      H2061   1.083       .  S
C2062      C2063   1.422       .  A
C2062      C2067   1.423       .  A
C2062      C2175   1.474       .  S
C2063      C2064   1.402       .  A
C2063      H2068   1.083       .  S
C2064      C2065   1.398       .  A
C2065      C2066   1.398       .  A
C2065      H2069   1.059       .  S
C2066      C2067   1.404       .  A
C2066      C2082   1.505       .  S
C2067      H2070   1.083       .  S
C2071      C2072   1.425       .  A
C2071      C2076   1.426       .  A
C2071      C2158   1.483       .  S
C2072      C2073   1.401       .  A
C2072      H2077   1.083       .  S
C2073      C2074   1.395       .  A
C2074      C2075   1.395       .  A
C2074      H2078   1.058       .  S
C2075      C2076   1.403       .  A
C2075      C2084   1.505       .  S
C2076      H2079   1.083       .  S
C2080      C2081   1.423       .  A
C2080      C2085   1.422       .  A
C2080      C2144   1.474       .  S
C2081      C2082   1.402       .  A
C2081      H2086   1.083       .  S
C2082      C2083   1.398       .  A
C2083      C2084   1.399       .  A
C2083      H2087   1.060       .  S
C2084      C2085   1.401       .  A
C2085      H2088   1.083       .  S
O2089      C2100   1.290       .  A
O2090      C2101   1.292       .  A
O2091      C2102   1.290       .  A
O2091     Eu2427   2.457       .  S
O2092      C2103   1.289       .  A
O2092     Eu2097   2.448   1_554  S
O2093      C2103   1.293       .  A
O2094      C2102   1.291       .  A
O2095      C2101   1.291       .  A
O2095     Eu2097   2.461       .  S
O2096      C2100   1.294       .  A
Eu2097     O2421   2.457       .  S
O2098     Eu2127   2.355       .  S
O2098     Eu2124   2.357       .  S
O2099     Eu2126   2.359       .  S
C2100      C2301   1.488       .  S
C2101      C2259   1.497       .  S
C2102      C2172   1.470       .  S
C2103      C2147   1.471       .  S
H2104      O2105   0.964       .  S
O2105     Eu2126   2.342       .  S
O2105     Eu2454   2.344       .  S
H2106      O2107   0.965       .  S
O2107     Eu2127   2.345       .  S
O2108      C2131   1.293       .  A
O2108     Eu2124   2.463       .  S
O2109      C2132   1.293       .  A
O2109     Eu2125   2.461   1_556  S
O2110      C2133   1.294       .  A
O2110     Eu2126   2.469       .  S
O2111      C2134   1.291       .  A
O2111     Eu2127   2.456       .  S
O2112      C2135   1.288       .  A
O2113      C2136   1.292       .  A
O2114      C2137   1.292       .  A
O2114     Eu2458   2.465       .  S
O2115      C2138   1.292       .  A
O2115     Eu2128   2.466       .  S
O2116      C2137   1.291       .  A
O2116     Eu2126   2.457       .  S
O2117      C2138   1.291       .  A
O2117     Eu2127   2.457       .  S
O2118      C2133   1.289       .  A
O2118     Eu2454   2.447       .  S
O2119      C2136   1.294       .  A
O2119     Eu2455   2.466       .  S
O2120      C2135   1.294       .  A
O2120     Eu2125   2.468       .  S
O2121      C2134   1.291       .  A
O2121     Eu2124   2.451       .  S
O2122      C2131   1.288       .  A
O2122     Eu2128   2.442       .  S
O2123      C2132   1.287   1_554  A
Eu2124     O2448   2.447   1_554  S
Eu2124     O2435   2.344   1_554  S
Eu2124     O2142   2.338       .  S
Eu2124     O2460   2.355   1_554  S
Eu2125     O2449   2.466   1_554  S
Eu2126     O2140   2.349       .  S
Eu2126     O2130   2.355       .  S
Eu2127     O2129   2.358       .  S
Eu2127     O2142   2.346       .  S
Eu2128     O2444   2.465   1_554  S
Eu2128     O2129   2.349       .  S
Eu2128     O2470   2.352   1_554  S
Eu2128     O2142   2.353       .  S
Eu2128     O2460   2.351   1_554  S
O2130     Eu2454   2.355       .  S
O2130     Eu2458   2.351       .  S
C2131      C2273   1.492       .  S
C2132      C2284   1.489       .  S
C2133      C2231   1.489       .  S
C2134      C2214   1.478       .  S
C2135      C2203   1.497       .  S
C2136      C2242   1.495       .  S
C2137      C2189   1.470       .  S
C2138      C2161   1.477       .  S
H2139      O2140   0.964       .  S
O2140     Eu2458   2.352       .  S
H2141      O2142   0.965       .  S
C2143      C2144   1.403       .  A
C2143      C2148   1.401       .  A
C2143      H2150   1.084       .  S
C2144      C2145   1.414       .  A
C2145      C2146   1.409       .  A
C2146      C2147   1.406       .  A
C2147      C2148   1.415       .  A
C2148      N2149   1.445       .  S
N2149      O2153   1.263       .  A
N2149      O2154   1.262       .  A
N2152      O2155   1.262       .  A
N2152      O2156   1.263       .  A
C2157      C2158   1.402       .  A
C2157      C2162   1.407       .  A
C2157      H2164   1.083       .  S
C2158      C2159   1.419       .  A
C2159      C2160   1.400       .  A
C2159      N2166   1.438       .  S
C2160      C2161   1.399       .  A
C2160      H2165   1.084       .  S
C2161      C2162   1.417       .  A
C2162      N2163   1.438       .  S
N2163      O2167   1.263       .  A
N2163      O2168   1.262       .  A
N2166      O2170   1.263       .  A
C2171      C2172   1.397       .  A
C2171      C2176   1.400       .  A
C2172      C2173   1.418       .  A
C2173      C2174   1.409       .  A
C2173      N2180   1.443       .  S
C2174      C2175   1.401       .  A
C2174      H2179   1.083       .  S
C2175      C2176   1.418       .  A
N2177      O2181   1.263       .  A
N2177      O2182   1.262       .  A
N2180      O2183   1.262       .  A
N2180      O2184   1.263       .  A
C2185      C2186   1.400       .  A
C2185      C2190   1.410       .  A
C2186      C2187   1.417       .  A
C2187      C2188   1.399       .  A
C2187      N2194   1.441       .  S
C2188      C2189   1.397       .  A
C2188      H2193   1.084       .  S
C2189      C2190   1.420       .  A
N2191      O2195   1.263       .  A
N2191      O2196   1.262       .  A
N2194      O2197   1.262       .  A
N2194      O2198   1.263       .  A
C2199      C2200   1.414       .  A
C2199      C2204   1.403       .  A
C2199      H2206   1.076       .  S
C2200      C2201   1.430       .  A
C2201      C2202   1.402       .  A
C2201      N2208   1.430       .  S
C2202      C2203   1.402       .  A
C2202      H2207   1.084       .  S
C2203      C2204   1.416       .  A
C2204      N2205   1.435       .  S
N2205      O2209   1.262       .  A
N2208      O2211   1.263       .  A
N2208      O2212   1.262       .  A
C2213      C2214   1.401       .  A
C2213      C2218   1.398       .  A
C2213      H2220   1.084       .  S
C2214      C2215   1.418       .  A
C2215      C2216   1.405       .  A
C2216      C2217   1.404       .  A
C2216      H2221   1.083       .  S
C2217      C2218   1.417       .  A
C2218      N2219   1.437       .  S
N2219      O2223   1.262       .  A
N2219      O2224   1.263       .  A
N2222      O2225   1.260   1_545  A
N2222      O2226   1.263   1_545  A
C2227      C2228   1.404       .  A
C2227      C2232   1.404       .  A
C2227      H2234   1.083       .  S
C2228      C2229   1.421       .  A
C2229      C2230   1.400       .  A
C2229      N2236   1.436       .  S
C2230      C2231   1.402       .  A
C2230      H2235   1.084       .  S
C2231      C2232   1.419       .  A
C2232      N2233   1.434       .  S
N2233      O2237   1.263       .  A
N2233      O2238   1.262       .  A
N2236      O2239   1.263       .  A
N2236      O2240   1.263       .  A
C2241      C2242   1.404       .  A
C2241      C2246   1.404       .  A
C2241      H2248   1.084       .  S
C2242      C2243   1.415       .  A
C2243      C2244   1.403       .  A
C2243      N2250   1.430       .  S
C2244      C2245   1.410       .  A
C2244      H2249   1.081       .  S
C2245      C2246   1.425       .  A
C2246      N2247   1.434       .  S
N2247      O2251   1.263       .  A
N2247      O2252   1.263       .  A
N2250      O2254   1.262       .  A
C2255      C2586   1.418       .  A
C2255      C2260   1.404       .  A
C2255      H2262   1.076       .  S
C2256      C2585   1.418       .  A
C2256      C2257   1.429       .  A
C2257      C2258   1.401       .  A
C2257      N2594   1.426       .  S
C2258      C2259   1.403       .  A
C2258      H2263   1.084       .  S
C2259      C2590   1.414       .  A
C2260      C2589   1.414       .  A
C2260      N2591   1.434       .  S
N2261      C2590   1.434       .  S
N2261      O2595   1.262       .  A
N2261      O2266   1.262   1_556  A
N2264      C2587   1.426       .  S
N2264      O2267   1.262       .  A
N2264      O2598   1.262       .  A
O2265      N2591   1.262       .  A
O2268      N2594   1.262   1_554  A
C2269      C2270   1.416       .  A
C2269      C2274   1.402   1_554  A
C2269      H2276   1.077   1_554  S
C2270      C2601   1.430       .  A
C2271      C2600   1.430       .  A
C2271      C2272   1.400       .  A
C2271      N2278   1.428       .  S
C2272      C2603   1.400       .  A
C2272      H2277   1.084       .  S
C2273      C2602   1.400       .  A
C2273      C2274   1.414   1_554  A
C2274      N2275   1.436       .  S
N2275      O2279   1.262   1_556  A
N2275      O2610   1.263       .  A
N2278      O2611   1.262       .  A
N2278      O2282   1.263       .  A
O2280      N2605   1.263       .  A
O2281      N2608   1.262       .  A
C2283      C2614   1.402       .  A
C2283      C2288   1.399       .  A
C2283      H2290   1.084       .  S
C2284      C2613   1.402       .  A
C2284      C2285   1.416       .  A
C2285      C2286   1.400       .  A
C2285      N2292   1.433       .  S
C2286      C2287   1.410       .  A
C2286      H2291   1.080       .  S
C2287      C2618   1.425       .  A
C2288      C2617   1.425       .  A
C2288      N2289   1.433       .  S
N2289      O2293   1.263       .  A
N2289      O2624   1.262       .  A
N2292      O2296   1.263   1_556  A
O2294      N2619   1.262       .  A
C2297      C2298   1.404       .  A
C2297      C2302   1.404       .  A
C2297      H2304   1.083       .  S
C2298      C2629   1.421   1_554  A
C2299      C2628   1.421       .  A
C2299      C2300   1.401       .  A
C2299      N2306   1.436       .  S
C2300      C2631   1.402       .  A
C2300      H2305   1.084       .  S
C2301      C2630   1.402   1_554  A
C2301      C2302   1.418       .  A
C2302      N2303   1.434       .  S
N2303      O2307   1.263       .  A
N2306      O2309   1.263       .  A
N2306      O2640   1.263       .  A
O2310      N2636   1.263       .  A
C2311      C2312   1.428       .  A
C2311      C2628   1.493       .  S
C2312      C2313   1.401       .  A
C2312      H2317   1.083       .  S
C2313      C2322   1.499       .  S
C2314      C2315   1.390       .  A
C2314      H2318   1.057       .  S
C2315      C2316   1.403   1_556  A
C2316      H2319   1.082       .  S
C2320      C2321   1.428       .  A
C2320      C2325   1.424       .  A
C2320      C2617   1.503       .  S
C2321      C2322   1.398       .  A
C2321      H2326   1.079       .  S
C2322      C2323   1.402       .  A
C2323      C2324   1.396       .  A
C2323      H2327   1.068       .  S
C2324      C2325   1.402       .  A
C2324      C2331   1.494       .  S
C2325      H2328   1.082       .  S
C2329      C2330   1.424       .  A
C2329      C2334   1.432       .  A
C2329      C2600   1.522       .  S
C2330      C2331   1.399       .  A
C2330      H2335   1.076       .  S
C2331      C2332   1.399       .  A
C2332      C2333   1.401       .  A
C2332      H2336   1.069       .  S
C2333      C2334   1.403       .  A
C2333      C2342   1.503       .  S
C2334      H2337   1.080       .  S
C2338      C2339   1.434       .  A
C2338      C2343   1.437       .  A
C2338      C2586   1.527       .  S
C2339      C2340   1.402       .  A
C2339      H2344   1.075       .  S
C2340      C2341   1.397       .  A
C2341      C2342   1.389       .  A
C2341      H2345   1.063       .  S
C2342      C2343   1.402       .  A
C2343      H2346   1.079       .  S
C2347      C2348   1.435       .  A
C2347      C2352   1.437       .  A
C2347      C2575   1.507       .  S
C2348      C2349   1.406       .  A
C2348      H2353   1.082       .  S
C2349      C2350   1.388       .  A
C2349      C2358   1.509       .  S
C2350      C2351   1.387       .  A
C2350      H2354   1.053       .  S
C2351      C2352   1.401       .  A
C2351      C2376   1.509       .  S
C2352      H2355   1.080       .  S
C2356      C2357   1.429       .  A
C2356      C2361   1.423       .  A
C2356      C2558   1.494       .  S
C2357      C2358   1.404       .  A
C2357      H2362   1.082       .  S
C2358      C2359   1.404       .  A
C2359      C2360   1.397       .  A
C2359      H2363   1.065       .  S
C2360      C2361   1.399       .  A
C2360      C2367   1.499       .  S
C2361      H2364   1.083       .  S
C2365      C2366   1.421       .  A
C2365      C2370   1.421       .  A
C2365      C2547   1.486       .  S
C2366      C2367   1.399       .  A
C2366      H2371   1.082       .  S
C2367      C2368   1.402       .  A
C2368      C2369   1.402       .  A
C2368      H2372   1.069       .  S
C2369      C2370   1.401       .  A
C2369      C2378   1.499       .  S
C2370      H2373   1.083       .  S
C2374      C2375   1.438       .  A
C2374      C2379   1.430       .  A
C2374      C2530   1.522       .  S
C2375      C2376   1.402       .  A
C2375      H2380   1.077       .  S
C2376      C2377   1.397       .  A
C2377      C2378   1.391       .  A
C2377      H2381   1.063       .  S
C2378      C2379   1.403       .  A
C2379      H2382   1.079       .  S
C2383      C2384   1.424       .  A
C2383      C2388   1.422       .  A
C2383      C2516   1.475       .  S
C2384      C2385   1.405       .  A
C2384      H2389   1.083       .  S
C2385      C2386   1.397       .  A
C2385      C2394   1.506       .  S
C2386      C2387   1.397       .  A
C2386      H2390   1.059       .  S
C2387      C2388   1.399       .  A
C2387      C2403   1.502       .  S
C2388      H2391   1.083       .  S
C2392      C2393   1.422       .  A
C2392      C2397   1.423       .  A
C2392      C2505   1.474       .  S
C2393      C2394   1.402       .  A
C2393      H2398   1.083       .  S
C2394      C2395   1.398       .  A
C2395      C2396   1.398       .  A
C2395      H2399   1.059       .  S
C2396      C2397   1.404       .  A
C2396      C2412   1.505       .  S
C2397      H2400   1.083       .  S
C2401      C2402   1.425       .  A
C2401      C2406   1.426       .  A
C2401      C2488   1.483       .  S
C2402      C2403   1.401       .  A
C2402      H2407   1.083       .  S
C2403      C2404   1.395       .  A
C2404      C2405   1.395       .  A
C2404      H2408   1.058       .  S
C2405      C2406   1.403       .  A
C2405      C2414   1.505       .  S
C2406      H2409   1.083       .  S
C2410      C2411   1.423       .  A
C2410      C2415   1.422       .  A
C2410      C2474   1.474       .  S
C2411      C2412   1.402       .  A
C2411      H2416   1.083       .  S
C2412      C2413   1.398       .  A
C2413      C2414   1.399       .  A
C2413      H2417   1.060       .  S
C2414      C2415   1.401       .  A
C2415      H2418   1.083       .  S
O2419      C2430   1.290       .  A
O2420      C2431   1.292       .  A
O2421      C2432   1.290       .  A
O2422      C2433   1.289       .  A
O2422     Eu2427   2.448       .  S
O2423      C2433   1.293       .  A
O2424      C2432   1.291       .  A
O2425      C2431   1.291       .  A
O2425     Eu2427   2.461       .  S
O2426      C2430   1.294       .  A
O2428     Eu2457   2.355       .  S
O2428     Eu2454   2.357       .  S
O2429     Eu2456   2.359       .  S
C2430      C2631   1.488       .  S
C2431      C2589   1.497       .  S
C2432      C2502   1.470       .  S
C2433      C2477   1.471       .  S
H2434      O2435   0.964       .  S
O2435     Eu2456   2.342       .  S
H2436      O2437   0.965       .  S
O2437     Eu2457   2.345       .  S
O2438      C2461   1.293       .  A
O2438     Eu2454   2.463       .  S
O2439      C2462   1.293       .  A
O2439     Eu2455   2.461       .  S
O2440      C2463   1.294       .  A
O2440     Eu2456   2.469       .  S
O2441      C2464   1.291       .  A
O2441     Eu2457   2.456       .  S
O2442      C2465   1.288       .  A
O2443      C2466   1.291       .  A
O2444      C2467   1.292       .  A
O2445      C2468   1.292       .  A
O2445     Eu2458   2.466       .  S
O2446      C2467   1.291       .  A
O2446     Eu2456   2.457       .  S
O2447      C2468   1.291       .  A
O2447     Eu2457   2.457       .  S
O2448      C2463   1.289       .  A
O2449      C2466   1.294       .  A
O2450      C2465   1.294       .  A
O2450     Eu2455   2.468       .  S
O2451      C2464   1.291       .  A
O2451     Eu2454   2.451       .  S
O2452      C2461   1.288       .  A
O2452     Eu2458   2.442       .  S
O2453      C2462   1.287       .  A
Eu2454     O2472   2.338       .  S
Eu2456     O2470   2.349       .  S
Eu2456     O2460   2.355       .  S
Eu2457     O2459   2.358       .  S
Eu2457     O2472   2.346       .  S
Eu2458     O2459   2.349       .  S
Eu2458     O2472   2.353       .  S
C2461      C2603   1.492       .  S
C2462      C2614   1.489       .  S
C2463      C2561   1.489       .  S
C2464      C2544   1.478       .  S
C2465      C2533   1.497       .  S
C2466      C2572   1.495       .  S
C2467      C2519   1.470       .  S
C2468      C2491   1.477       .  S
H2469      O2470   0.964       .  S
H2471      O2472   0.965       .  S
C2473      C2474   1.403       .  A
C2473      C2478   1.401       .  A
C2473      H2480   1.084       .  S
C2474      C2475   1.414       .  A
C2475      C2476   1.409       .  A
C2476      C2477   1.406       .  A
C2477      C2478   1.415       .  A
C2478      N2479   1.445       .  S
N2479      O2483   1.263       .  A
N2479      O2484   1.262       .  A
N2482      O2485   1.262       .  A
N2482      O2486   1.263       .  A
C2487      C2488   1.402       .  A
C2487      C2492   1.407       .  A
C2487      H2494   1.083       .  S
C2488      C2489   1.419       .  A
C2489      C2490   1.400       .  A
C2489      N2496   1.438       .  S
C2490      C2491   1.399       .  A
C2490      H2495   1.084       .  S
C2491      C2492   1.417       .  A
C2492      N2493   1.438       .  S
N2493      O2497   1.263       .  A
N2493      O2498   1.262       .  A
N2496      O2500   1.263       .  A
C2501      C2502   1.397       .  A
C2501      C2506   1.400       .  A
C2502      C2503   1.418       .  A
C2503      C2504   1.409       .  A
C2503      N2510   1.443       .  S
C2504      C2505   1.401       .  A
C2504      H2509   1.083       .  S
C2505      C2506   1.418       .  A
N2507      O2511   1.263       .  A
N2507      O2512   1.262       .  A
N2510      O2513   1.262       .  A
N2510      O2514   1.263       .  A
C2515      C2516   1.400       .  A
C2515      C2520   1.410       .  A
C2516      C2517   1.417       .  A
C2517      C2518   1.399       .  A
C2517      N2524   1.441       .  S
C2518      C2519   1.397       .  A
C2518      H2523   1.084       .  S
C2519      C2520   1.420       .  A
N2521      O2525   1.263       .  A
N2521      O2526   1.262       .  A
N2524      O2527   1.262       .  A
N2524      O2528   1.263       .  A
C2529      C2530   1.414       .  A
C2529      C2534   1.403       .  A
C2529      H2536   1.076       .  S
C2530      C2531   1.430       .  A
C2531      C2532   1.402       .  A
C2531      N2538   1.430       .  S
C2532      C2533   1.402       .  A
C2532      H2537   1.084       .  S
C2533      C2534   1.416       .  A
C2534      N2535   1.435       .  S
N2535      O2539   1.262       .  A
N2538      O2541   1.263       .  A
N2538      O2542   1.262       .  A
C2543      C2544   1.401       .  A
C2543      C2548   1.398       .  A
C2543      H2550   1.084       .  S
C2544      C2545   1.418       .  A
C2545      C2546   1.405       .  A
C2546      C2547   1.404       .  A
C2546      H2551   1.083       .  S
C2547      C2548   1.417       .  A
C2548      N2549   1.437       .  S
N2549      O2553   1.262       .  A
N2549      O2554   1.263       .  A
N2552      O2555   1.260   1_545  A
N2552      O2556   1.263   1_545  A
C2557      C2558   1.404       .  A
C2557      C2562   1.404       .  A
C2557      H2564   1.083       .  S
C2558      C2559   1.421       .  A
C2559      C2560   1.400       .  A
C2559      N2566   1.436       .  S
C2560      C2561   1.402       .  A
C2560      H2565   1.084       .  S
C2561      C2562   1.419       .  A
C2562      N2563   1.434       .  S
N2563      O2567   1.263       .  A
N2563      O2568   1.262       .  A
N2566      O2569   1.263       .  A
N2566      O2570   1.263       .  A
C2571      C2572   1.404       .  A
C2571      C2576   1.404       .  A
C2571      H2578   1.084       .  S
C2572      C2573   1.415       .  A
C2573      C2574   1.403       .  A
C2573      N2580   1.430       .  S
C2574      C2575   1.410       .  A
C2574      H2579   1.081       .  S
C2575      C2576   1.425       .  A
C2576      N2577   1.434       .  S
N2577      O2581   1.263       .  A
N2577      O2582   1.263       .  A
N2580      O2584   1.262       .  A
C2585      C2590   1.404       .  A
C2585      H2592   1.076       .  S
C2586      C2587   1.429       .  A
C2587      C2588   1.401       .  A
C2588      C2589   1.403       .  A
C2588      H2593   1.084       .  S
N2591      O2596   1.262       .  A
N2594      O2597   1.262       .  A
C2599      C2600   1.416       .  A
C2599      C2604   1.402       .  A
C2599      H2606   1.077       .  S
C2601      C2602   1.400       .  A
C2601      N2608   1.428       .  S
C2602      H2607   1.084       .  S
C2603      C2604   1.414       .  A
C2604      N2605   1.436       .  S
N2605      O2609   1.262       .  A
N2608      O2612   1.263   1_554  A
C2613      C2618   1.399       .  A
C2613      H2620   1.084   1_556  S
C2614      C2615   1.416       .  A
C2615      C2616   1.400       .  A
C2615      N2622   1.433       .  S
C2616      C2617   1.410       .  A
C2616      H2621   1.080       .  S
C2618      N2619   1.433   1_556  S
N2619      O2623   1.263   1_554  A
N2622      O2626   1.263       .  A
C2627      C2628   1.404       .  A
C2627      C2632   1.404       .  A
C2627      H2634   1.083       .  S
C2629      C2630   1.401       .  A
C2629      N2636   1.436       .  S
C2630      H2635   1.084       .  S
C2631      C2632   1.418       .  A
C2632      N2633   1.434       .  S
N2633      O2637   1.263       .  A
N2636      O2639   1.263       .  A
