geometry optimzed in LAMMPS
_audit_creation_date              2020-12-01 
_audit_creation_method            'lammps2cif' 
_symmetry_space_group_name_H-M    'P1' 
_symmetry_Int_Tables_number       1 
_symmetry_cell_setting            triclinic 
loop_ 
_symmetry_equiv_pos_as_xyz 
  x,y,z 
_cell_length_a                    28.33752247 
_cell_length_b                    28.164103406700367 
_cell_length_c                    33.88811315351035 
_cell_angle_alpha                 87.87777360514376 
_cell_angle_beta                  88.03521489029208 
_cell_angle_gamma                 123.38314960491567 
loop_ 
_atom_site_label 
_atom_site_type_symbol 
_atom_site_fract_x 
_atom_site_fract_y 
_atom_site_fract_z 
_atom_site_charge 
C1          C  0.32903438  0.18290590  0.84001803     0.87800
C2          C  0.27046939  0.15123931  0.86250670    -0.52500
C3          C  0.27297721  0.15224989  0.90284458     0.10700
C4          C  0.33357403  0.18428573  0.91646574     0.21600
C5          C  0.36098327  0.24309204  0.85490341    -0.53200
C6          C  0.36270284  0.24349843  0.89512192     0.10800
C7          C  0.35865349  0.15529254  0.85681324    -0.52700
C8          C  0.36108558  0.15591464  0.89714173     0.11400
H9          H  0.23134470  0.13122355  0.84755069     0.15900
H10         H  0.33574131  0.18523486  0.94914440     0.01600
H11         H  0.37755587  0.28147316  0.83571466     0.16200
H12         H  0.37661549  0.13767721  0.83828793     0.16000
C13         C  0.33720039  0.17766249  0.64061315     0.87800
C14         C  0.36529262  0.23470149  0.61571391    -0.52500
C15         C  0.37165610  0.22975753  0.57606030     0.10700
C16         C  0.34975733  0.16864112  0.56545061     0.21600
C17         C  0.28116142  0.13758860  0.62169153    -0.53200
C18         C  0.28750334  0.13370469  0.58193687     0.10800
C19         C  0.37423182  0.15515549  0.63124229    -0.52700
C20         C  0.38139435  0.15042126  0.59196068     0.11400
H21         H  0.37733951  0.27452635  0.62822647     0.15900
H22         H  0.35504671  0.16507957  0.53330502     0.01600
H23         H  0.24009640  0.11904216  0.63744909     0.16200
H24         H  0.39454092  0.14531186  0.65378199     0.16000
C25         C  0.17576226  0.34442009  0.13585087     0.87800
C26         C  0.15114245  0.38005281  0.12769579    -0.52500
C27         C  0.14700853  0.38913151  0.08850250     0.10700
C28         C  0.16824768  0.36086448  0.06096273     0.21600
C29         C  0.13816892  0.28901794  0.11538417    -0.53200
C30         C  0.13444795  0.29716766  0.07587000     0.10800
C31         C  0.23305251  0.37609566  0.11196509    -0.52700
C32         C  0.22944959  0.38513423  0.07260471     0.11400
H33         H  0.13938590  0.39794935  0.15093044     0.15900
H34         H  0.16550099  0.36793868  0.02890441     0.01600
H35         H  0.11948503  0.24705384  0.13025496     0.16200
H36         H  0.27253361  0.38928570  0.12513614     0.16000
C37         C  0.18432340  0.33411473  0.33302008     0.87800
C38         C  0.14830230  0.35745117  0.34349142    -0.52500
C39         C  0.14341681  0.36284766  0.38290074     0.10700
C40         C  0.17450809  0.34343378  0.40835229     0.21600
C41         C  0.24122023  0.37379921  0.35108859    -0.53200
C42         C  0.23570611  0.37775789  0.39092556     0.10800
C43         C  0.15652547  0.27711206  0.35781543    -0.52700
C44         C  0.15167786  0.28235433  0.39759389     0.11400
H45         H  0.12826552  0.36870833  0.32162412     0.15900
H46         H  0.17037077  0.34713873  0.44062255     0.01600
H47         H  0.28190717  0.39261450  0.33472286     0.16200
H48         H  0.14356660  0.23717990  0.34509848     0.16000
O49         O  0.40657211  0.40137851  0.94101510    -0.79600
O50         O  0.99668443  0.10963125  0.03036699    -0.64300
O51         O  0.47471341  0.00410453  0.95810025    -1.10900
C52         C  0.08710331  0.46413127  0.03115524     1.07300
O53         O  0.08753120  0.14011066  0.02635960    -0.77500
O54         O  0.13369163  0.08967085  0.98934241    -0.65100
Ni55       Ni  0.40770539  0.47069383  0.93658235     1.34900
C56         C  0.12316632  0.07173327  0.95484347     0.86000
O57         O  0.44500577  0.08434257  0.95861592    -0.78100
O58         O  0.39120593  0.00725902  0.92374970    -0.88300
C59         C  0.04802644  0.14673255  0.03700570     0.85600
O60         O  0.36823633  0.45120367  0.98701025    -0.66500
O61         O  0.09277111  0.00731381  0.04980582    -0.85800
C62         C  0.37961241  0.47421086  0.01983939     0.86400
C63         C  0.40957518  0.05816855  0.93226044     1.08000
H64         H  0.99025462  0.99828404  0.04011322     0.38800
O65         O  0.01469282  0.02279996  0.01767454    -1.08500
O66         O  0.07469390  0.03136410  0.94596881    -0.65100
Ni67       Ni  0.01485626  0.48332082  0.98295278     1.26300
O68         O  0.41548337  0.01194862  0.02461657    -0.65400
O69         O  0.04945310  0.44763170  0.00608521    -0.77700
C70         C  0.44556773  0.39496770  0.92864129     0.85800
O71         O  0.49691481  0.43080110  0.93477986    -0.64800
Ni72       Ni  0.08756755  0.07190601  0.03714358     1.27400
Ni73       Ni  0.97833880  0.05479435  0.99134412     1.26100
H74         H  0.98919293  0.02611596  0.92869217     0.40300
O75         O  0.13463323  0.10073088  0.53348156    -0.79600
O76         O  0.42107209  0.50683458  0.43587423    -0.64300
O77         O  0.01888205  0.02972559  0.52029402    -1.10900
C78         C  0.08138799  0.42850597  0.44593194     1.07300
O79         O  0.38301006  0.41477169  0.44604873    -0.77500
O80         O  0.42848825  0.36547851  0.48570379    -0.65100
Ni81       Ni  0.06781549  0.10383777  0.53901115     1.34900
C82         C  0.45384430  0.37622062  0.51755493     0.86000
O83         O  0.44567758  0.06241515  0.50437568    -0.78100
O84         O  0.00506890  0.11301678  0.54787107    -0.88300
C85         C  0.38188337  0.45602800  0.43074893     0.85600
O86         O  0.08985281  0.14709045  0.48913016    -0.66500
O87         O  0.03364584  0.40718233  0.43068302    -0.85800
C88         C  0.06775427  0.13655921  0.45590786     0.86400
C89         C  0.45976765  0.09705733  0.53158441     1.08000
H90         H  0.02364890  0.00799184  0.43101723     0.39800
O91         O  0.49981131  0.48185493  0.45146366    -1.08500
O92         O  0.01165610  0.43128030  0.52710350    -0.65100
Ni93       Ni  0.05106038  0.99393047  0.49322174     1.26300
O94         O  0.02268020  0.08979130  0.44946435    -0.65400
O95         O  0.09907857  0.46501485  0.47224238    -0.77700
C96         C  0.13890918  0.05896349  0.54279329     0.85800
O97         O  0.10285416  0.00887192  0.53313930    -0.64800
Ni98       Ni  0.44609149  0.40768617  0.43587905     1.27400
Ni99       Ni  0.48186878  0.02834124  0.48116943     1.26100
H100        H  0.99544023  0.00529040  0.54308907     0.40300
C101        C  0.28275160  0.39904055  0.41701768    -0.15200
C102        C  0.33480574  0.44433372  0.40701413    -0.30300
H103        H  0.27432818  0.37496186  0.44512066     0.13900
H104        H  0.34312661  0.47165491  0.38066158     0.14400
C105        C  0.11799575  0.40955811  0.43211822    -0.15200
C106        C  0.10861155  0.38299660  0.39835358    -0.30300
H107        H  0.15372101  0.41902697  0.44903558     0.13900
H108        H  0.07528647  0.37760894  0.38020568     0.14400
C109        C  0.12973277  0.23591588  0.42909025    -0.15200
C110        C  0.09422931  0.18065955  0.42285242    -0.30300
H111        H  0.14018728  0.24840668  0.45913389     0.13900
H112        H  0.08024902  0.16787555  0.39341288     0.14400
C113        C  0.18061193  0.33578894  0.17817214    -0.17200
C114        C  0.18496802  0.33141082  0.21320181     0.06800
C115        C  0.18863944  0.32909100  0.25461927     0.08700
C116        C  0.18890861  0.32966216  0.29019062    -0.18100
C117        C  0.06270189  0.19791467  0.05830396    -0.15200
C118        C  0.11094793  0.24939118  0.04903488    -0.30300
H119        H  0.03514276  0.19239821  0.08360369     0.13900
H120        H  0.13616194  0.25589008  0.02203976     0.14400
C121        C  0.27857721  0.41355006  0.04289407    -0.15200
C122        C  0.33333664  0.44842182  0.05156492    -0.30300
H123        H  0.26853622  0.40610136  0.01217023     0.13900
H124        H  0.34412974  0.45967989  0.08172259     0.14400
C125        C  0.10547584  0.42529868  0.04181806    -0.15200
C126        C  0.12958058  0.42819827  0.07583314    -0.30300
H127        H  0.09643129  0.39198137  0.02223655     0.13900
H128        H  0.13441251  0.45896906  0.09651186     0.14400
C129        C  0.41970014  0.11320974  0.54328813    -0.15200
C130        C  0.42153759  0.13521025  0.57811233    -0.30300
H131        H  0.38646650  0.10413045  0.52379584     0.13900
H132        H  0.45263330  0.14029683  0.59844819     0.14400
C133        C  0.39384063  0.27652714  0.54463544    -0.15200
C134        C  0.42959026  0.33199697  0.55073689    -0.30300
H135        H  0.38264843  0.26405753  0.51467860     0.13900
H136        H  0.44458274  0.34482798  0.57997001     0.14400
C137        C  0.18712574  0.06938340  0.56535819    -0.15200
C138        C  0.24011576  0.11411852  0.55559392    -0.30300
H139        H  0.17862762  0.04110927  0.59116512     0.13900
H140        H  0.24880748  0.13939827  0.52805213     0.14400
C141        C  0.32664042  0.18254879  0.79661096    -0.17200
C142        C  0.32609558  0.18288124  0.76092497     0.06800
C143        C  0.32744796  0.18307619  0.71904664     0.08700
C144        C  0.33058615  0.18197927  0.68343799    -0.18100
C145        C  0.38716944  0.13148331  0.92071197    -0.15200
C146        C  0.38800313  0.08691968  0.90896088    -0.30300
H147        H  0.40216612  0.14782608  0.94933611     0.13900
H148        H  0.36842172  0.06776125  0.88193379     0.14400
C149        C  0.43053715  0.34400961  0.90792133    -0.15200
C150        C  0.38109607  0.29451917  0.91690474    -0.30300
H151        H  0.46053478  0.34674110  0.88559002     0.13900
H152        H  0.35354076  0.29055228  0.94171770     0.14400
C153        C  0.16947048  0.09757441  0.92347057    -0.15200
C154        C  0.22399677  0.12805833  0.93230601    -0.30300
H155        H  0.15825744  0.08809248  0.89317861     0.13900
H156        H  0.23384689  0.13497493  0.96310447     0.14400
C157        C  0.33143167  0.69271467  0.83800527     0.87800
C158        C  0.27402637  0.66450033  0.86180154    -0.52500
C159        C  0.27760884  0.65733227  0.90161211     0.10700
C160        C  0.33766290  0.67828740  0.91326750     0.21600
C161        C  0.37091285  0.74865931  0.85769876    -0.53200
C162        C  0.37314988  0.74087307  0.89757167     0.10800
C163        C  0.35291324  0.65485674  0.84773339    -0.52700
C164        C  0.35669496  0.64749850  0.88700198     0.11400
H165        H  0.23519139  0.65332298  0.84847673     0.15900
H166        H  0.34042255  0.67201402  0.94546828     0.01600
H167        H  0.38973515  0.79046171  0.84254149     0.16200
H168        H  0.36415669  0.63531724  0.82543551     0.16000
C169        C  0.34856553  0.68486878  0.64152285     0.87800
C170        C  0.37830167  0.74167683  0.61672586    -0.52500
C171        C  0.38463260  0.73666631  0.57716377     0.10700
C172        C  0.36041763  0.67499136  0.56650719     0.21600
C173        C  0.29234215  0.64651384  0.62273208    -0.53200
C174        C  0.29816399  0.64209600  0.58306117     0.10800
C175        C  0.38365348  0.65999106  0.63251987    -0.52700
C176        C  0.39026497  0.65457606  0.59320806     0.11400
H177        H  0.39140665  0.78153946  0.62956509     0.15900
H178        H  0.36533757  0.67123937  0.53435330     0.01600
H179        H  0.25164040  0.62931381  0.63867416     0.16200
H180        H  0.40267445  0.64873828  0.65521386     0.16000
C181        C  0.17473370  0.85815191  0.14478883     0.87800
C182        C  0.14799048  0.89111669  0.13457627    -0.52500
C183        C  0.14108641  0.89506733  0.09527567     0.10700
C184        C  0.16190949  0.86467080  0.06962159     0.21600
C185        C  0.13725507  0.79989142  0.12771082    -0.53200
C186        C  0.13142900  0.80304653  0.08792177     0.10800
C187        C  0.23064707  0.88809220  0.11913709    -0.52700
C188        C  0.22386287  0.89114174  0.07944160     0.11400
H189        H  0.13663450  0.91091789  0.15656345     0.15900
H190        H  0.15683749  0.86735487  0.03744299     0.01600
H191        H  0.12182999  0.76008631  0.14481654     0.16200
H192        H  0.27104872  0.90279645  0.13135476     0.16000
C193        C  0.19080704  0.85336341  0.34314830     0.87800
C194        C  0.16261156  0.88177671  0.36073388    -0.52500
C195        C  0.16305507  0.88295704  0.40113132     0.10700
C196        C  0.19211702  0.85576317  0.41966737     0.21600
C197        C  0.25059807  0.88590747  0.35793530    -0.53200
C198        C  0.25089546  0.88644090  0.39824392     0.10800
C199        C  0.16031623  0.79392474  0.36483950    -0.52700
C200        C  0.16140651  0.79536763  0.40521931     0.11400
H201        H  0.14458088  0.89976556  0.34260358     0.15900
H202        H  0.19294707  0.85700805  0.45240159     0.01600
H203        H  0.28869938  0.90343638  0.33859533     0.16200
H204        H  0.14105582  0.75506911  0.34935270     0.16000
O205        O  0.40787514  0.88591073  0.95818759    -0.79600
O206        O  0.01138984  0.61499769  0.04606648    -0.64300
O207        O  0.48202157  0.51671615  0.95350634    -1.10900
C208        C  0.07821557  0.96221814  0.03204474     1.07300
O209        O  0.10253035  0.64624009  0.04152626    -0.77500
O210        O  0.14358113  0.60076076  0.99193030    -0.65100
Ni211      Ni  0.40135641  0.94839516  0.94222611     1.34900
C212        C  0.13160555  0.57953203  0.95841689     0.86000
O213        O  0.46516638  0.60346219  0.96883264    -0.78100
O214        O  0.40310420  0.53613975  0.93011274    -0.88300
C215        C  0.06220429  0.65107943  0.05350453     0.85600
O216        O  0.35826588  0.93627358  0.99072298    -0.66500
O217        O  0.10963537  0.51198423  0.04704276    -0.85800
C218        C  0.36878099  0.96519794  0.02092516     0.86400
C219        C  0.42658178  0.58508059  0.94432017     1.08000
H220        H  0.00475019  0.50599173  0.04836757     0.38800
O221        O  0.02814780  0.53059401  0.02563819    -1.08500
O222        O  0.08372228  0.53596996  0.95179202    -0.65100
Ni223      Ni  0.00729259  0.97477729  0.97690045     1.26300
O224        O  0.42805531  0.51813922  0.02637137    -0.65400
O225        O  0.04757601  0.94672266  0.00246604    -0.77700
C226        C  0.44931692  0.88328493  0.94600510     0.85800
O227        O  0.49931936  0.92153070  0.95377794    -0.64800
Ni228      Ni  0.10309570  0.57716263  0.04272655     1.27400
Ni229      Ni  0.99365830  0.56697310  0.00338652     1.26100
H230        H  0.00504187  0.54499249  0.93851386     0.40300
O231        O  0.14275307  0.60912931  0.53581601    -0.79600
O232        O  0.43752392  0.01319958  0.43690542    -0.64300
O233        O  0.02866054  0.53504108  0.51875666    -1.10900
C234        C  0.05918582  0.92337217  0.43489248     1.07300
O235        O  0.40506597  0.92170599  0.44347643    -0.77500
O236        O  0.44940208  0.87596724  0.48862365    -0.65100
Ni237      Ni  0.07332109  0.60799390  0.53932797     1.34900
C238        C  0.46733319  0.88612830  0.52308870     0.86000
O239        O  0.44163871  0.55894166  0.50315225    -0.78100
O240        O  0.00713119  0.61172247  0.54558123    -0.88300
C241        C  0.40130573  0.96218741  0.43001401     0.85600
O242        O  0.09656487  0.65389840  0.49068918    -0.66500
O243        O  0.01035951  0.90480007  0.42242323    -0.85800
C244        C  0.08068250  0.64384269  0.45563783     0.86400
C245        C  0.45886934  0.59227214  0.53124088     1.08000
H246        H  0.04458808  0.51263535  0.43104993     0.39800
O247        O  0.51894001  0.99491149  0.45955374    -1.08500
O248        O  0.99932353  0.92387866  0.52413742    -0.65100
Ni249      Ni  0.06511498  0.50085696  0.49655113     1.26300
O250        O  0.04111703  0.59533377  0.44585982    -0.65400
O251        O  0.08029814  0.95670257  0.46332987    -0.77700
C252        C  0.14810997  0.56865864  0.54709064     0.85800
O253        O  0.11221678  0.51765150  0.53952921    -0.64800
Ni254      Ni  0.47302260  0.92157346  0.43996279     1.27400
Ni255      Ni  0.47047333  0.52020846  0.47677415     1.26100
H256        H  0.00243135  0.51005966  0.54037768     0.40300
C257        C  0.30119398  0.90447105  0.42021897    -0.15200
C258        C  0.35255105  0.94924591  0.40806134    -0.30300
H259        H  0.29537176  0.88022521  0.44775044     0.13900
H260        H  0.35837518  0.97723817  0.38276855     0.14400
C261        C  0.09121584  0.90458559  0.41301234    -0.15200
C262        C  0.13661302  0.90647037  0.42524990    -0.30300
H263        H  0.07374254  0.88483016  0.38565922     0.13900
H264        H  0.15195106  0.92148909  0.45407016     0.14400
C265        C  0.13821784  0.74554129  0.43405356    -0.15200
C266        C  0.10766591  0.69099269  0.42464935    -0.30300
H267        H  0.14519461  0.75475578  0.46494587     0.13900
H268        H  0.09827125  0.68048824  0.39423366     0.14400
C269        C  0.18159924  0.85467258  0.18740077    -0.17200
C270        C  0.18543913  0.85294462  0.22271686     0.06800
C271        C  0.18837312  0.85205050  0.26427597     0.08700
C272        C  0.18991421  0.85216748  0.29982588    -0.18100
C273        C  0.07451825  0.69965093  0.07654842    -0.15200
C274        C  0.11243633  0.75387332  0.06308125    -0.30300
H275        H  0.05124516  0.69047755  0.10495378     0.13900
H276        H  0.13184480  0.76262634  0.03322973     0.14400
C277        C  0.26947114  0.91155880  0.04760866    -0.15200
C278        C  0.32492092  0.94454520  0.05365205    -0.30300
H279        H  0.25652573  0.89989261  0.01779565     0.13900
H280        H  0.33864082  0.96023054  0.08259156     0.14400
C281        C  0.09805949  0.92566340  0.04557512    -0.15200
C282        C  0.12046528  0.93062643  0.08063380    -0.30300
H283        H  0.09269655  0.89304929  0.02657438     0.13900
H284        H  0.12243367  0.96119912  0.10032163     0.14400
C285        C  0.42226621  0.61188056  0.54469036    -0.15200
C286        C  0.42740494  0.63560373  0.57923682    -0.30300
H287        H  0.38867672  0.60448626  0.52610053     0.13900
H288        H  0.45860185  0.63933306  0.59892980     0.14400
C289        C  0.40945487  0.78449513  0.54634698    -0.15200
C290        C  0.44038147  0.83968945  0.55452206    -0.30300
H291        H  0.40355479  0.77352596  0.51570715     0.13900
H292        H  0.44978784  0.85147432  0.58472513     0.14400
C293        C  0.19668219  0.58095772  0.56966275    -0.15200
C294        C  0.25020481  0.62190873  0.55722276    -0.30300
H295        H  0.18806386  0.55590741  0.59728842     0.13900
H296        H  0.25889055  0.64342999  0.52804519     0.14400
C297        C  0.32896696  0.69941444  0.79516030    -0.17200
C298        C  0.33073761  0.69960498  0.75957452     0.06800
C299        C  0.33588854  0.69579446  0.71845578     0.08700
C300        C  0.34153600  0.69095050  0.68373333    -0.18100
C301        C  0.37489809  0.61043974  0.90135816    -0.15200
C302        C  0.40751441  0.62233605  0.93198760    -0.30300
H303        H  0.36431964  0.57435434  0.88418703     0.13900
H304        H  0.42153176  0.66061882  0.94747920     0.14400
C305        C  0.43920200  0.83627674  0.92194177    -0.15200
C306        C  0.38893524  0.78638597  0.92475332    -0.30300
H307        H  0.47256733  0.84320176  0.90090556     0.13900
H308        H  0.35726635  0.77821168  0.94782586     0.14400
C309        C  0.17570776  0.60499893  0.92550007    -0.15200
C310        C  0.23085897  0.63592607  0.93252154    -0.30300
H311        H  0.16273109  0.59358520  0.89569446     0.13900
H312        H  0.24284887  0.64350735  0.96288914     0.14400
C313        C  0.83213820  0.18937098  0.84439031     0.87800
C314        C  0.77321754  0.15524014  0.86669924    -0.52500
C315        C  0.77564379  0.15651152  0.90707482     0.10700
C316        C  0.83595523  0.19080541  0.92089008     0.21600
C317        C  0.86147705  0.24933135  0.85942268    -0.53200
C318        C  0.86273570  0.24955917  0.89963696     0.10800
C319        C  0.86388908  0.16428723  0.86135356    -0.52700
C320        C  0.86572281  0.16488904  0.90167444     0.11400
H321        H  0.73396464  0.13419169  0.85183948     0.15900
H322        H  0.83789651  0.19172799  0.95359116     0.01600
H323        H  0.87703996  0.28759155  0.84032547     0.16200
H324        H  0.88280515  0.14726592  0.84314401     0.16000
C325        C  0.85035044  0.18777659  0.64506558     0.87800
C326        C  0.88002020  0.24423774  0.61936650    -0.52500
C327        C  0.88379773  0.23754704  0.57966467     0.10700
C328        C  0.85782615  0.17529156  0.56992703     0.21600
C329        C  0.79285384  0.14973574  0.62765204    -0.53200
C330        C  0.79642312  0.14409468  0.58796207     0.10800
C331        C  0.88386587  0.16153529  0.63511963    -0.52700
C332        C  0.88844089  0.15498794  0.59581406     0.11400
H333        H  0.89499905  0.28493003  0.63157542     0.15900
H334        H  0.86083103  0.17017109  0.53779466     0.01600
H335        H  0.75300333  0.13379598  0.64445911     0.16200
H336        H  0.90387074  0.15063648  0.65724048     0.16000
C337        C  0.67095002  0.34805404  0.14301929     0.87800
C338        C  0.64597810  0.38289874  0.13313491    -0.52500
C339        C  0.64244600  0.39035573  0.09365349     0.10700
C340        C  0.66503359  0.36235680  0.06753175     0.21600
C341        C  0.63430509  0.29182951  0.12284774    -0.53200
C342        C  0.63181747  0.29950023  0.08298692     0.10800
C343        C  0.72883315  0.37955918  0.11958385    -0.52700
C344        C  0.72572206  0.38702535  0.07980623     0.11400
H345        H  0.63297459  0.40095240  0.15544364     0.15900
H346        H  0.66281925  0.36846822  0.03524521     0.01600
H347        H  0.61623787  0.25011801  0.13794516     0.16200
H348        H  0.76806737  0.39328197  0.13329820     0.16000
C349        C  0.68850693  0.34929723  0.34171610     0.87800
C350        C  0.66115360  0.37895954  0.35867473    -0.52500
C351        C  0.66326755  0.38249856  0.39886984     0.10700
C352        C  0.69295087  0.35638633  0.41792687     0.21600
C353        C  0.74903049  0.38257037  0.35538556    -0.53200
C354        C  0.75094633  0.38551667  0.39554542     0.10800
C355        C  0.65850360  0.29105474  0.36517497    -0.52700
C356        C  0.66116977  0.29502375  0.40538582     0.11400
H357        H  0.64171959  0.39537229  0.34048413     0.15900
H358        H  0.69502419  0.35961922  0.45050199     0.01600
H359        H  0.78638176  0.39856253  0.33553511     0.16200
H360        H  0.63825355  0.25111964  0.35094257     0.16000
O361        O  0.90608875  0.40450226  0.94971668    -0.79600
O362        O  0.49855322  0.11886931  0.02714077    -0.64300
O363        O  0.96767514  0.00341354  0.95255700    -1.10900
C364        C  0.58312946  0.45994947  0.03045525     1.07300
O365        O  0.58932820  0.15233721  0.02195538    -0.77500
O366        O  0.63792167  0.10032418  0.99240520    -0.65100
Ni367      Ni  0.90761746  0.47349818  0.94284258     1.34900
C368        C  0.62767721  0.07327074  0.96130419     0.86000
O369        O  0.94055661  0.08337588  0.96199749    -0.78100
O370        O  0.88239846  0.00850282  0.92617389    -0.88300
C371        C  0.54915032  0.15673636  0.03429510     0.85600
O372        O  0.86367475  0.45427938  0.99174768    -0.66500
O373        O  0.60237331  0.03012391  0.05976587    -0.85800
C374        C  0.87510333  0.47277091  0.02601668     0.86400
C375        C  0.90316503  0.05917043  0.93640508     1.08000
H376        H  0.49757772  0.01430205  0.04728309     0.38800
O377        O  0.52100109  0.03438653  0.02334866    -1.08500
O378        O  0.58056901  0.02773130  0.95637527    -0.65100
Ni379      Ni  0.51604254  0.48058668  0.97642519     1.26300
O380        O  0.90868307  0.00308164  0.02330279    -0.65400
O381        O  0.55181356  0.44637811  0.00112418    -0.77700
C382        C  0.94469619  0.39908923  0.93512143     0.85800
O383        O  0.99620768  0.43546865  0.94020974    -0.64800
Ni384      Ni  0.59395757  0.08951337  0.03989957     1.27400
Ni385      Ni  0.48376677  0.06080880  0.99191720     1.26100
H386        H  0.49765123  0.02384538  0.93394912     0.40300
O387        O  0.64038236  0.11280919  0.54262530    -0.79600
O388        O  0.94056385  0.51073968  0.43061939    -0.64300
O389        O  0.52611119  0.03894741  0.52502625    -1.10900
C390        C  0.55619807  0.41792854  0.43403866     1.07300
O391        O  0.90469463  0.41863948  0.43994029    -0.77500
O392        O  0.94719623  0.37220979  0.48666377    -0.65100
Ni393      Ni  0.57153139  0.11291473  0.54428748     1.34900
C394        C  0.96791341  0.38354822  0.52030783     0.86000
O395        O  0.93848680  0.05704166  0.50689294    -0.78100
O396        O  0.50609839  0.11816904  0.54897479    -0.88300
C397        C  0.90250205  0.45961153  0.42523897     0.85600
O398        O  0.59636490  0.15710847  0.49473813    -0.66500
O399        O  0.50610713  0.39746225  0.42335965    -0.85800
C400        C  0.57803334  0.14644929  0.46033908     0.86400
C401        C  0.95699655  0.09304466  0.53324000     1.08000
H402        H  0.54476789  0.01951041  0.43764058     0.39800
O403        O  0.01951766  0.48952345  0.45370087    -1.08500
O404        O  0.49990067  0.42315462  0.52231813    -0.65100
Ni405      Ni  0.56313820  0.00522550  0.50318902     1.26300
O406        O  0.53608611  0.09852272  0.45201177    -0.65400
O407        O  0.57932635  0.45423748  0.46050653    -0.77700
C408        C  0.64510674  0.07200918  0.55420377     0.85800
O409        O  0.60852110  0.02099462  0.54707459    -0.64800
Ni410      Ni  0.97075343  0.41497505  0.43654058     1.27400
Ni411      Ni  0.96942857  0.02059207  0.48015175     1.26100
H412        H  0.50036250  0.01436086  0.54695983     0.40300
C413        C  0.80184507  0.40365352  0.41690293    -0.15200
C414        C  0.85343136  0.44718273  0.40376858    -0.30300
H415        H  0.79626422  0.38034595  0.44485436     0.13900
H416        H  0.85928121  0.47437104  0.37794884     0.14400
C417        C  0.58756033  0.39808498  0.41246030    -0.15200
C418        C  0.63658051  0.40602080  0.42256566    -0.30300
H419        H  0.56774920  0.37382375  0.38698763     0.13900
H420        H  0.65498036  0.42600469  0.44964999     0.14400
C421        C  0.63814970  0.24693066  0.43574072    -0.15200
C422        C  0.60492918  0.19186350  0.42816354    -0.30300
H423        H  0.64726092  0.25797193  0.46616845     0.13900
H424        H  0.59323472  0.17975954  0.39827723     0.14400
C425        C  0.67472940  0.34150091  0.18597586    -0.17200
C426        C  0.67841460  0.34057274  0.22143054     0.06800
C427        C  0.68267945  0.34246122  0.26300945     0.08700
C428        C  0.68576081  0.34524620  0.29846842    -0.18100
C429        C  0.56173702  0.20494047  0.05818566    -0.15200
C430        C  0.61356080  0.25344277  0.05565885    -0.30300
H431        H  0.52910744  0.19979029  0.07914303     0.13900
H432        H  0.64469332  0.25999272  0.03270914     0.14400
C433        C  0.77427683  0.41328651  0.04969782    -0.15200
C434        C  0.82912299  0.44644415  0.05789356    -0.30300
H435        H  0.76373348  0.40616089  0.01903593     0.13900
H436        H  0.84051391  0.45679300  0.08808673     0.14400
C437        C  0.59924309  0.42064019  0.04439042    -0.15200
C438        C  0.62319458  0.42670544  0.07896746    -0.30300
H439        H  0.59108186  0.38628956  0.02615605     0.13900
H440        H  0.62773448  0.45889100  0.09814658     0.14400
C441        C  0.92010706  0.11239648  0.54667052    -0.15200
C442        C  0.92561797  0.13637580  0.58114976    -0.30300
H443        H  0.88588204  0.10416939  0.52846588     0.13900
H444        H  0.95746857  0.14068089  0.60041803     0.14400
C445        C  0.90753034  0.28370228  0.54753350    -0.15200
C446        C  0.94124389  0.33944616  0.55350515    -0.30300
H447        H  0.89887378  0.27069525  0.51743806     0.13900
H448        H  0.95328825  0.35306740  0.58309385     0.14400
C449        C  0.69418988  0.08405675  0.57612436    -0.15200
C450        C  0.74748086  0.12515738  0.56328349    -0.30300
H451        H  0.68632108  0.05834403  0.60327656     0.13900
H452        H  0.75542141  0.14732550  0.53444327     0.14400
C453        C  0.83132657  0.18956020  0.80093742    -0.17200
C454        C  0.83433400  0.19152323  0.76517855     0.06800
C455        C  0.84015748  0.19376049  0.72333817     0.08700
C456        C  0.84539274  0.19343487  0.68781285    -0.18100
C457        C  0.89029759  0.13921378  0.92518945    -0.15200
C458        C  0.88239598  0.08994500  0.91520388    -0.30300
H459        H  0.91071331  0.15822180  0.95201741     0.13900
H460        H  0.85757083  0.06957266  0.89006005     0.14400
C461        C  0.92941626  0.34929650  0.91313655    -0.15200
C462        C  0.87996170  0.29987861  0.92162024    -0.30300
H463        H  0.95949042  0.35258992  0.89060476     0.13900
H464        H  0.85229093  0.29510312  0.94663957     0.14400
C465        C  0.67284117  0.09509561  0.92935279    -0.15200
C466        C  0.72704479  0.13275176  0.93658864    -0.30300
H467        H  0.66169818  0.07809831  0.90044856     0.13900
H468        H  0.73721805  0.14659508  0.96639329     0.14400
C469        C  0.83286712  0.68569306  0.83163717     0.87800
C470        C  0.77566171  0.65442999  0.85582738    -0.52500
C471        C  0.78060605  0.65084238  0.89574649     0.10700
C472        C  0.84181204  0.67841583  0.90726522     0.21600
C473        C  0.86858336  0.74390483  0.84932766    -0.53200
C474        C  0.87235352  0.73964475  0.88933259     0.10800
C475        C  0.86020674  0.65368335  0.84319702    -0.52700
C476        C  0.86536717  0.65013372  0.88281000     0.11400
H477        H  0.73573485  0.63832400  0.84246271     0.15900
H478        H  0.84529802  0.67538226  0.93967428     0.01600
H479        H  0.88501373  0.78415922  0.83252236     0.16200
H480        H  0.87367685  0.63476148  0.82194760     0.16000
C481        C  0.83812284  0.67302982  0.63465076     0.87800
C482        C  0.86802211  0.73041943  0.61043006    -0.52500
C483        C  0.87542448  0.72635475  0.57086313     0.10700
C484        C  0.85238044  0.66519692  0.55957497     0.21600
C485        C  0.78256338  0.63463746  0.61500886    -0.53200
C486        C  0.78968121  0.63135927  0.57528371     0.10800
C487        C  0.87394419  0.64903205  0.62583630    -0.52700
C488        C  0.88207436  0.64489382  0.58654938     0.11400
H489        H  0.88018193  0.76996381  0.62343196     0.15900
H490        H  0.85831655  0.66227694  0.52741665     0.01600
H491        H  0.74133233  0.61682450  0.63032223     0.16200
H492        H  0.89284863  0.63791149  0.64871684     0.16000
C493        C  0.66654128  0.85346450  0.14087258     0.87800
C494        C  0.64135241  0.88585513  0.12453596    -0.52500
C495        C  0.63345298  0.88107902  0.08468862     0.10700
C496        C  0.65211215  0.84453291  0.06561699     0.21600
C497        C  0.62616504  0.79220939  0.12991860    -0.53200
C498        C  0.61848052  0.78715348  0.09059084     0.10800
C499        C  0.72155776  0.87652990  0.11548939    -0.52700
C500        C  0.71452823  0.87253271  0.07576769     0.11400
H501        H  0.62956254  0.90872294  0.14315427     0.15900
H502        H  0.64579401  0.84055298  0.03344113     0.01600
H503        H  0.60608735  0.75569366  0.15136567     0.16200
H504        H  0.76214185  0.89404864  0.12821163     0.16000
C505        C  0.68302518  0.84165495  0.33700008     0.87800
C506        C  0.65094440  0.86850471  0.34880439    -0.52500
C507        C  0.64589789  0.87174656  0.38841358     0.10700
C508        C  0.67316818  0.84695382  0.41290829     0.21600
C509        C  0.74000799  0.87644710  0.35573107    -0.53200
C510        C  0.73448300  0.87837553  0.39581131     0.10800
C511        C  0.65125335  0.78296706  0.35987683    -0.52700
C512        C  0.64650176  0.78599407  0.40003990     0.11400
H513        H  0.63307663  0.88329423  0.32756575     0.15900
H514        H  0.66907129  0.84923608  0.44539448     0.01600
H515        H  0.78052818  0.89413611  0.33938381     0.16200
H516        H  0.63597805  0.74364169  0.34556081     0.16000
O517        O  0.90287262  0.88603541  0.94546999    -0.79600
O518        O  0.52389065  0.62251455  0.03325745    -0.64300
O519        O  0.98127007  0.52010922  0.96105546    -1.10900
C520        C  0.58563621  0.98008705  0.05006316     1.07300
O521        O  0.61186645  0.64548057  0.02262448    -0.77500
O522        O  0.64774845  0.58677084  0.98676275    -0.65100
Ni523      Ni  0.89414926  0.94882705  0.93709638     1.34900
C524        C  0.63421517  0.57001170  0.95228125     0.86000
O525        O  0.95853567  0.60186457  0.97869702    -0.78100
O526        O  0.90528810  0.53943508  0.93397307    -0.88300
C527        C  0.57713647  0.65855335  0.03300810     0.85600
O528        O  0.85276001  0.92950760  0.98722109    -0.66500
O529        O  0.60207211  0.50602253  0.04798042    -0.85800
C530        C  0.86227335  0.95595792  0.01853829     0.86400
C531        C  0.92561110  0.58657256  0.95020754     1.08000
H532        H  0.50600959  0.50626575  0.04042317     0.38800
O533        O  0.53017616  0.52973289  0.01755267    -1.08500
O534        O  0.58402217  0.53272476  0.94434298    -0.65100
Ni535      Ni  0.51271632  0.97831573  0.98931109     1.26300
O536        O  0.92408890  0.51336514  0.03422180    -0.65400
O537        O  0.55212909  0.95511631  0.02243626    -0.77700
C538        C  0.94456890  0.88651047  0.92972244     0.85800
O539        O  0.99476479  0.92635930  0.93528411    -0.64800
Ni540      Ni  0.60455007  0.57429634  0.03496773     1.27400
Ni541      Ni  0.49834833  0.56764160  0.99399389     1.26100
H542        H  0.50501283  0.53983752  0.93016036     0.40300
O543        O  0.63602548  0.59999906  0.52788036    -0.79600
O544        O  0.91977474  0.00659059  0.43948233    -0.64300
O545        O  0.51949896  0.52860120  0.51692983    -1.10900
C546        C  0.58351729  0.93637489  0.45174109     1.07300
O547        O  0.88383671  0.91491728  0.44876893    -0.77500
O548        O  0.93256655  0.86592532  0.48450070    -0.65100
Ni549      Ni  0.56876139  0.60202302  0.53626016     1.34900
C550        C  0.95592760  0.87589517  0.51713161     0.86000
O551        O  0.95050116  0.56177534  0.49750811    -0.78100
O552        O  0.50544012  0.60949750  0.54744248    -0.88300
C553        C  0.88104595  0.95562321  0.43452236     0.85600
O554        O  0.58806500  0.64712882  0.48748873    -0.66500
O555        O  0.53761460  0.91693123  0.43433768    -0.85800
C556        C  0.56751535  0.63669756  0.45373470     0.86400
C557        C  0.96266165  0.59352092  0.52637987     1.08000
H558        H  0.52215338  0.50411846  0.42766928     0.39800
O559        O  0.00074367  0.98450009  0.45427165    -1.08500
O560        O  0.50837941  0.93443131  0.53208857    -0.65100
Ni561      Ni  0.55089826  0.49212983  0.49004951     1.26300
O562        O  0.52499269  0.58873642  0.44589032    -0.65400
O563        O  0.59858992  0.97038473  0.47952998    -0.77700
C564        C  0.64066361  0.55849655  0.53737275     0.85800
O565        O  0.60367242  0.50801452  0.52915856    -0.64800
Ni566      Ni  0.94864129  0.91135173  0.43656814     1.27400
Ni567      Ni  0.98487265  0.52551287  0.47487746     1.26100
H568        H  0.49568705  0.50419720  0.53959652     0.40300
C569        C  0.78151614  0.89741651  0.42154892    -0.15200
C570        C  0.83312462  0.94351778  0.41181272    -0.30300
H571        H  0.77352662  0.87186342  0.44884578     0.13900
H572        H  0.84041175  0.97200028  0.38642611     0.14400
C573        C  0.62064847  0.91771297  0.43864354    -0.15200
C574        C  0.61256878  0.89314515  0.40418510    -0.30300
H575        H  0.65463152  0.92473158  0.45666867     0.13900
H576        H  0.58086464  0.89015062  0.38532796     0.14400
C577        C  0.62262619  0.73755919  0.43017683    -0.15200
C578        C  0.59286819  0.68257012  0.42190270    -0.30300
H579        H  0.62884491  0.74812187  0.46089356     0.13900
H580        H  0.58315550  0.67072476  0.39172643     0.14400
C581        C  0.67489010  0.85618065  0.18334817    -0.17200
C582        C  0.68119864  0.85232661  0.21800476     0.06800
C583        C  0.68642050  0.84501090  0.25859779     0.08700
C584        C  0.68746736  0.84057259  0.29395950    -0.18100
C585        C  0.60122507  0.71775035  0.04264246    -0.15200
C586        C  0.58289936  0.73050695  0.07475300    -0.30300
H587        H  0.64118491  0.75046136  0.02714521     0.13900
H588        H  0.54688502  0.69658616  0.09314969     0.14400
C589        C  0.76176226  0.89352847  0.04476700    -0.15200
C590        C  0.81691234  0.93181508  0.05090918    -0.30300
H591        H  0.75005992  0.87929448  0.01522326     0.13900
H592        H  0.82887939  0.94949113  0.07953291     0.14400
C593        C  0.60721539  0.95116370  0.07326948    -0.15200
C594        C  0.60779755  0.90645150  0.06147546    -0.30300
H595        H  0.62691551  0.97038477  0.10022030     0.13900
H596        H  0.59181644  0.88974523  0.03310982     0.14400
C597        C  0.92258903  0.60985820  0.53766872    -0.15200
C598        C  0.92161664  0.62851981  0.57336910    -0.30300
H599        H  0.89186292  0.60404097  0.51681297     0.13900
H600        H  0.95026947  0.63045684  0.59475698     0.14400
C601        C  0.89901332  0.77444180  0.54044118    -0.15200
C602        C  0.93226984  0.82949879  0.54857010    -0.30300
H603        H  0.88986759  0.76367147  0.50997284     0.13900
H604        H  0.94517166  0.84082787  0.57839260     0.14400
C605        C  0.68946970  0.56895148  0.55906608    -0.15200
C606        C  0.74263920  0.61293748  0.54880787    -0.30300
H607        H  0.68118597  0.54066263  0.58481901     0.13900
H608        H  0.75150506  0.63838789  0.52132947     0.14400
C609        C  0.82804088  0.68854601  0.78878249    -0.17200
C610        C  0.82626117  0.68699426  0.75334600     0.06800
C611        C  0.82713673  0.68251946  0.71204504     0.08700
C612        C  0.83057815  0.67799436  0.67701063    -0.18100
C613        C  0.88705987  0.61716907  0.89937502    -0.15200
C614        C  0.90923953  0.62485525  0.93484791    -0.30300
H615        H  0.88488021  0.58520568  0.88105827     0.13900
H616        H  0.91560752  0.65917449  0.95238869     0.14400
C617        C  0.93424255  0.84022291  0.90524417    -0.15200
C618        C  0.89061685  0.78698948  0.91504002    -0.30300
H619        H  0.96196497  0.84984621  0.87901643     0.13900
H620        H  0.86638552  0.77739665  0.94311738     0.14400
C621        C  0.67864188  0.59421049  0.91970906    -0.15200
C622        C  0.73372399  0.62660905  0.92676228    -0.30300
H623        H  0.66567015  0.58325304  0.88987343     0.13900
H624        H  0.74572156  0.63497979  0.95708032     0.14400
loop_ 
_geom_bond_atom_site_label_1 
_geom_bond_atom_site_label_2 
_geom_bond_distance 
_geom_bond_site_symmetry_2 
_ccdc_geom_bond_type 
C1            C2   1.538       .  S
C1            C7   1.533       .  S
C1            C5   1.534       .  S
C1          C141   1.475       .  S
C2            H9   1.084       .  S
C2            C3   1.372       .  D
C3            C4   1.535       .  S
C3          C154   1.484       .  S
C4            C8   1.538       .  S
C4            C6   1.530       .  S
C4           H10   1.112       .  S
C5           H11   1.086       .  S
C5            C6   1.366       .  D
C6          C150   1.470       .  S
C7           H12   1.086       .  S
C7            C8   1.371       .  D
C8          C145   1.489       .  S
C13          C14   1.540       .  S
C13          C19   1.526       .  S
C13          C17   1.536       .  S
C13         C144   1.475       .  S
C14          H21   1.085       .  S
C14          C15   1.372       .  D
C15          C16   1.537       .  S
C15         C133   1.484       .  S
C16          C20   1.550       .  S
C16          C18   1.541       .  S
C16          H22   1.110       .  S
C17          H23   1.086       .  S
C17          C18   1.369       .  D
C18         C138   1.486       .  S
C19          H24   1.087       .  S
C19          C20   1.362       .  D
C20         C130   1.487       .  S
C25          C26   1.528       .  S
C25          C31   1.533       .  S
C25          C29   1.534       .  S
C25         C113   1.469       .  S
C26          H33   1.087       .  S
C26          C27   1.364       .  D
C27          C28   1.553       .  S
C27         C126   1.489       .  S
C28          C32   1.547       .  S
C28          C30   1.549       .  S
C28          H34   1.110       .  S
C29          H35   1.086       .  S
C29          C30   1.368       .  D
C30         C118   1.492       .  S
C31          H36   1.085       .  S
C31          C32   1.366       .  D
C32         C121   1.487       .  S
C37          C38   1.527       .  S
C37          C43   1.538       .  S
C37          C41   1.536       .  S
C37         C116   1.469       .  S
C38          H45   1.087       .  S
C38          C39   1.361       .  D
C39          C40   1.538       .  S
C39         C106   1.474       .  S
C40          C44   1.533       .  S
C40          C42   1.528       .  S
C40          H46   1.111       .  S
C41          H47   1.086       .  S
C41          C42   1.369       .  D
C42         C101   1.469       .  S
C43          H48   1.085       .  S
C43          C44   1.372       .  D
C44         C109   1.481       .  S
O49         Ni55   1.935       .  S
O49          C70   1.274       .  A
O50         Ni73   1.929   1_554  S
O50          C59   1.275   1_655  A
O51        Ni211   1.903   1_545  S
O51        Ni385   1.906       .  S
O51        Ni535   1.920   1_545  S
O51         H386   0.966       .  S
C52          O69   1.274       .  A
C52         O217   1.282       .  A
C52         C125   1.486       .  S
O53         Ni72   1.943       .  S
O53          C59   1.275       .  A
O54         Ni72   1.913   1_556  S
O54          C56   1.270       .  A
Ni55         O60   1.896       .  S
Ni55        O214   1.923       .  S
Ni55        O207   1.892       .  S
C56          O66   1.267       .  A
C56         C153   1.476       .  S
O57        Ni385   1.937       .  S
O57          C63   1.283       .  A
O58        Ni211   1.919   1_545  S
O58          C63   1.277       .  A
C59         C117   1.487       .  S
O60          C62   1.269   1_556  A
O61         Ni72   1.938       .  S
O61         C208   1.282   1_545  A
C62         O224   1.279       .  A
C62         C122   1.483       .  S
C63         C146   1.478       .  S
H64          O65   0.966   1_665  S
O65         Ni73   1.922   1_454  S
O65         Ni72   1.905       .  S
O65        Ni223   1.905   1_544  S
O66        Ni223   1.917   1_545  S
Ni67         O69   1.914   1_556  S
Ni67        O222   1.918       .  S
Ni67        O383   1.899   1_455  S
Ni67        O519   1.899   1_455  S
Ni67        O221   1.907   1_556  S
O68        Ni385   1.917   1_554  S
O68         C218   1.268   1_545  A
C70          O71   1.265       .  A
C70         C149   1.469       .  S
O71        Ni379   1.901       .  S
Ni73        O369   1.935       .  S
Ni73        O380   1.940   1_556  S
Ni73        O363   1.897       .  S
H74         O363   0.966       .  S
O75         Ni81   1.946       .  S
O75          C96   1.277       .  A
O76        Ni255   1.901       .  S
O76          C85   1.262       .  A
O77         Ni81   1.912       .  S
O77         Ni93   1.927   1_545  S
O77        Ni411   1.908   1_455  S
O77         H100   0.966   1_455  S
C78          O95   1.279       .  A
C78          O87   1.279       .  A
C78         C105   1.475       .  S
O79         Ni98   1.926       .  S
O79          C85   1.272       .  A
O80         Ni98   1.912       .  S
O80          C82   1.269       .  A
Ni81         O84   1.948       .  S
Ni81         O86   1.916       .  S
C82         O404   1.268       .  A
C82         C134   1.480       .  S
O83         Ni99   1.917       .  S
O83          C89   1.275       .  A
O84         C401   1.281   1_455  A
C85         C102   1.465       .  S
O86          C88   1.271       .  A
O87        Ni410   1.917   1_455  S
C88          O94   1.266       .  A
C88         C110   1.475       .  S
C89         O396   1.282       .  A
C89         C129   1.485       .  S
H90         O559   0.966   1_545  S
O91         Ni98   1.897       .  S
O91        Ni255   1.898       .  S
O91        Ni561   1.894       .  S
O91         H558   0.967       .  S
O92        Ni249   1.919       .  S
O92         C394   1.267   1_455  A
Ni93         O97   1.913   1_565  S
Ni93        O248   1.923   1_455  S
Ni93        O251   1.947       .  S
Ni93        O559   1.893       .  S
O94        Ni411   1.914   1_455  S
O95        Ni249   1.924       .  S
C96          O97   1.270       .  A
C96         C137   1.478       .  S
Ni98        O399   1.911       .  S
Ni99        O232   1.897       .  S
Ni99        O406   1.911       .  S
Ni99        O389   1.902       .  S
Ni99        O247   1.901   1_545  S
C101        H103   1.087       .  S
C101        C102   1.335       .  D
C102        H104   1.086       .  S
C105        H107   1.086       .  S
C105        C106   1.343       .  D
C106        H108   1.087       .  S
C109        H111   1.087       .  S
C109        C110   1.340       .  D
C110        H112   1.086       .  S
C113        C114   1.206       .  T
C114        C115   1.413       .  S
C115        C116   1.206       .  T
C117        H119   1.086       .  S
C117        C118   1.351       .  D
C118        H120   1.086       .  S
C121        H123   1.086       .  S
C121        C122   1.354       .  D
C122        H124   1.085       .  S
C125        H127   1.086       .  S
C125        C126   1.342       .  D
C126        H128   1.087       .  S
C129        H131   1.086       .  S
C129        C130   1.342       .  D
C130        H132   1.087       .  S
C133        H135   1.086       .  S
C133        C134   1.344       .  D
C134        H136   1.086       .  S
C137        H139   1.086       .  S
C137        C138   1.343       .  D
C138        H140   1.087       .  S
C141        C142   1.210       .  T
C142        C143   1.418       .  S
C143        C144   1.210       .  T
C145        H147   1.086       .  S
C145        C146   1.343       .  D
C146        H148   1.086       .  S
C149        H151   1.087       .  S
C149        C150   1.337       .  D
C150        H152   1.087       .  S
C153        H155   1.084       .  S
C153        C154   1.344       .  D
C154        H156   1.086       .  S
C157        C158   1.539       .  S
C157        C163   1.523       .  S
C157        C161   1.539       .  S
C157        C297   1.466       .  S
C158        H165   1.085       .  S
C158        C159   1.372       .  D
C159        C160   1.536       .  S
C159        C310   1.481       .  S
C160        C164   1.541       .  S
C160        C162   1.531       .  S
C160        H166   1.111       .  S
C161        H167   1.086       .  S
C161        C162   1.370       .  D
C162        C306   1.475       .  S
C163        H168   1.087       .  S
C163        C164   1.356       .  D
C164        C301   1.471       .  S
C169        C170   1.531       .  S
C169        C175   1.528       .  S
C169        C173   1.529       .  S
C169        C300   1.467       .  S
C170        H177   1.084       .  S
C170        C171   1.369       .  D
C171        C172   1.540       .  S
C171        C289   1.484       .  S
C172        C176   1.554       .  S
C172        C174   1.543       .  S
C172        H178   1.110       .  S
C173        H179   1.086       .  S
C173        C174   1.367       .  D
C174        C294   1.485       .  S
C175        H180   1.087       .  S
C175        C176   1.365       .  D
C176        C286   1.490       .  S
C181        C182   1.525       .  S
C181        C187   1.536       .  S
C181        C185   1.533       .  S
C181        C269   1.471       .  S
C182        H189   1.087       .  S
C182        C183   1.362       .  D
C183        C184   1.553       .  S
C183        C282   1.489       .  S
C184        C188   1.538       .  S
C184        C186   1.542       .  S
C184        H190   1.110       .  S
C185        H191   1.086       .  S
C185        C186   1.370       .  D
C186        C274   1.488       .  S
C187        H192   1.085       .  S
C187        C188   1.372       .  D
C188        C277   1.485       .  S
C193        C194   1.530       .  S
C193        C199   1.537       .  S
C193        C197   1.531       .  S
C193        C272   1.471       .  S
C194        H201   1.086       .  S
C194        C195   1.371       .  D
C195        C196   1.534       .  S
C195        C262   1.487       .  S
C196        C200   1.534       .  S
C196        C198   1.528       .  S
C196        H202   1.112       .  S
C197        H203   1.086       .  S
C197        C198   1.367       .  D
C198        C257   1.466       .  S
C199        H204   1.084       .  S
C199        C200   1.371       .  D
C200        C265   1.482       .  S
O205       Ni211   1.928       .  S
O205        C226   1.273       .  A
O206       Ni229   1.903   1_455  S
O206        C215   1.266       .  A
O207       Ni541   1.901       .  S
O207       Ni379   1.908       .  S
O207        H542   0.966       .  S
C208        O225   1.274       .  A
C208        C281   1.485       .  S
O209       Ni228   1.953       .  S
O209        C215   1.278       .  A
O210       Ni228   1.914   1_556  S
O210        C212   1.271       .  A
Ni211       O216   1.916       .  S
C212        O222   1.267       .  A
C212        C309   1.476       .  S
O213       Ni541   1.914       .  S
O213        C219   1.275       .  A
O214        C219   1.279       .  A
C215        C273   1.475       .  S
O216        C218   1.271   1_556  A
O217       Ni228   1.945       .  S
C218        C278   1.475       .  S
C219        C302   1.475       .  S
H220        O221   0.966       .  S
O221       Ni229   1.915   1_455  S
O221       Ni228   1.908       .  S
Ni223       O539   1.902   1_455  S
Ni223       O225   1.920   1_556  S
Ni223       O363   1.898   1_465  S
O224       Ni541   1.948   1_554  S
C226        O227   1.267       .  A
C226        C305   1.476       .  S
O227       Ni535   1.913       .  S
Ni229       O525   1.931   1_554  S
Ni229       O536   1.930       .  S
Ni229       O519   1.894   1_554  S
H230        O519   0.966   1_455  S
O231       Ni237   1.950       .  S
O231        C252   1.277       .  A
O232        C241   1.261   1_545  A
O233       Ni237   1.901       .  S
O233       Ni567   1.901   1_455  S
O233       Ni249   1.912       .  S
O233        H256   0.966       .  S
C234        O251   1.287       .  A
C234        O243   1.275       .  A
C234        C261   1.471       .  S
O235       Ni254   1.927       .  S
O235        C241   1.272       .  A
O236       Ni254   1.907       .  S
O236        C238   1.269       .  A
Ni237       O240   1.940       .  S
Ni237       O242   1.911       .  S
C238        O560   1.269       .  A
C238        C290   1.473       .  S
O239       Ni255   1.913       .  S
O239        C245   1.273       .  A
O240        C557   1.282   1_455  A
C241        C258   1.460       .  S
O242        C244   1.271       .  A
O243       Ni566   1.904   1_455  S
C244        O250   1.268       .  A
C244        C266   1.475       .  S
C245        O552   1.282       .  A
C245        C285   1.485       .  S
H246        O403   0.967       .  S
O247       Ni405   1.897   1_565  S
O247       Ni254   1.898       .  S
O247        H402   0.966   1_565  S
O248        C550   1.269       .  A
Ni249       O253   1.902       .  S
Ni249       O403   1.895       .  S
O250       Ni567   1.917   1_455  S
C252        O253   1.265       .  A
C252        C293   1.472       .  S
Ni254       O555   1.909       .  S
Ni255       O562   1.915       .  S
Ni255       O545   1.905       .  S
C257        H259   1.087       .  S
C257        C258   1.334       .  D
C258        H260   1.087       .  S
C261        H263   1.086       .  S
C261        C262   1.339       .  D
C262        H264   1.086       .  S
C265        H267   1.086       .  S
C265        C266   1.343       .  D
C266        H268   1.084       .  S
C269        C270   1.207       .  T
C270        C271   1.414       .  S
C271        C272   1.207       .  T
C273        H275   1.086       .  S
C273        C274   1.343       .  D
C274        H276   1.087       .  S
C277        H279   1.087       .  S
C277        C278   1.343       .  D
C278        H280   1.085       .  S
C281        H283   1.086       .  S
C281        C282   1.342       .  D
C282        H284   1.087       .  S
C285        H287   1.086       .  S
C285        C286   1.342       .  D
C286        H288   1.087       .  S
C289        H291   1.086       .  S
C289        C290   1.346       .  D
C290        H292   1.084       .  S
C293        H295   1.086       .  S
C293        C294   1.343       .  D
C294        H296   1.086       .  S
C297        C298   1.205       .  T
C298        C299   1.410       .  S
C299        C300   1.205       .  T
C301        H303   1.087       .  S
C301        C302   1.340       .  D
C302        H304   1.087       .  S
C305        H307   1.087       .  S
C305        C306   1.338       .  D
C306        H308   1.087       .  S
C309        H311   1.085       .  S
C309        C310   1.342       .  D
C310        H312   1.087       .  S
C313        C314   1.542       .  S
C313        C319   1.531       .  S
C313        C317   1.533       .  S
C313        C453   1.473       .  S
C314        H321   1.085       .  S
C314        C315   1.373       .  D
C315        C316   1.531       .  S
C315        C466   1.479       .  S
C316        C320   1.531       .  S
C316        C318   1.525       .  S
C316        H322   1.112       .  S
C317        H323   1.086       .  S
C317        C318   1.365       .  D
C318        C462   1.464       .  S
C319        H324   1.086       .  S
C319        C320   1.370       .  D
C320        C457   1.481       .  S
C325        C326   1.539       .  S
C325        C331   1.527       .  S
C325        C329   1.531       .  S
C325        C456   1.474       .  S
C326        H333   1.085       .  S
C326        C327   1.374       .  D
C327        C328   1.538       .  S
C327        C445   1.487       .  S
C328        C332   1.552       .  S
C328        C330   1.542       .  S
C328        H334   1.110       .  S
C329        H335   1.086       .  S
C329        C330   1.367       .  D
C330        C450   1.485       .  S
C331        H336   1.087       .  S
C331        C332   1.363       .  D
C332        C442   1.491       .  S
C337        C338   1.527       .  S
C337        C343   1.538       .  S
C337        C341   1.540       .  S
C337        C425   1.476       .  S
C338        H345   1.087       .  S
C338        C339   1.362       .  D
C339        C340   1.544       .  S
C339        C438   1.479       .  S
C340        C344   1.539       .  S
C340        C342   1.536       .  S
C340        H346   1.111       .  S
C341        H347   1.086       .  S
C341        C342   1.370       .  D
C342        C430   1.480       .  S
C343        H348   1.085       .  S
C343        C344   1.370       .  D
C344        C433   1.486       .  S
C349        C350   1.532       .  S
C349        C355   1.539       .  S
C349        C353   1.534       .  S
C349        C428   1.476       .  S
C350        H357   1.086       .  S
C350        C351   1.370       .  D
C351        C352   1.532       .  S
C351        C418   1.485       .  S
C352        C356   1.532       .  S
C352        C354   1.528       .  S
C352        H358   1.112       .  S
C353        H359   1.086       .  S
C353        C354   1.368       .  D
C354        C413   1.467       .  S
C355        H360   1.084       .  S
C355        C356   1.373       .  D
C356        C421   1.482       .  S
O361       Ni367   1.925       .  S
O361        C382   1.272       .  A
O362       Ni385   1.923   1_554  S
O362        C371   1.270       .  A
O363       Ni523   1.894   1_545  S
C364        O381   1.279       .  A
C364        O529   1.279       .  A
C364        C437   1.480       .  S
O365       Ni384   1.923       .  S
O365        C371   1.270       .  A
O366       Ni384   1.909   1_556  S
O366        C368   1.270       .  A
Ni367       O526   1.907       .  S
Ni367       O372   1.908       .  S
Ni367       O519   1.896       .  S
C368        O378   1.266       .  A
C368        C465   1.476       .  S
O369        C375   1.285       .  A
O370       Ni523   1.911   1_545  S
O370        C375   1.276       .  A
C371        C429   1.481       .  S
O372        C374   1.269   1_556  A
O373       Ni384   1.917       .  S
O373        C520   1.276   1_545  A
C374        O536   1.271       .  A
C374        C434   1.482       .  S
C375        C458   1.469       .  S
H376        O377   0.967       .  S
O377       Ni385   1.919   1_554  S
O377       Ni535   1.904   1_544  S
O377       Ni384   1.900       .  S
O378       Ni535   1.916   1_545  S
Ni379       O534   1.917       .  S
Ni379       O381   1.931   1_556  S
Ni379       O533   1.895   1_556  S
O380        C530   1.275   1_545  A
C382        O383   1.263       .  A
C382        C461   1.463       .  S
O387       Ni393   1.952       .  S
O387        C408   1.277       .  A
O388       Ni567   1.897       .  S
O388        C397   1.262       .  A
O389       Ni393   1.905       .  S
O389       Ni405   1.909       .  S
O389        H412   0.966       .  S
C390        O407   1.285       .  A
C390        O399   1.276       .  A
C390        C417   1.473       .  S
O391       Ni410   1.930       .  S
O391        C397   1.274       .  A
O392       Ni410   1.915       .  S
O392        C394   1.270       .  A
Ni393       O396   1.941       .  S
Ni393       O398   1.914       .  S
C394        C446   1.478       .  S
O395       Ni411   1.910       .  S
O395        C401   1.271       .  A
C397        C414   1.462       .  S
O398        C400   1.271       .  A
C400        O406   1.265       .  A
C400        C422   1.474       .  S
C401        C441   1.487       .  S
O403       Ni567   1.899   1_455  S
O403       Ni410   1.900   1_455  S
O404       Ni561   1.924       .  S
Ni405       O560   1.921   1_545  S
Ni405       O409   1.901       .  S
Ni405       O563   1.924   1_545  S
O407       Ni561   1.939       .  S
C408        O409   1.265       .  A
C408        C449   1.474       .  S
Ni411       O544   1.897       .  S
Ni411       O559   1.896   1_645  S
C413        H415   1.087       .  S
C413        C414   1.334       .  D
C414        H416   1.086       .  S
C417        H419   1.087       .  S
C417        C418   1.339       .  D
C418        H420   1.086       .  S
C421        H423   1.086       .  S
C421        C422   1.340       .  D
C422        H424   1.084       .  S
C425        C426   1.210       .  T
C426        C427   1.419       .  S
C427        C428   1.210       .  T
C429        H431   1.086       .  S
C429        C430   1.344       .  D
C430        H432   1.086       .  S
C433        H435   1.086       .  S
C433        C434   1.348       .  D
C434        H436   1.085       .  S
C437        H439   1.086       .  S
C437        C438   1.343       .  D
C438        H440   1.087       .  S
C441        H443   1.086       .  S
C441        C442   1.342       .  D
C442        H444   1.087       .  S
C445        H447   1.086       .  S
C445        C446   1.343       .  D
C446        H448   1.085       .  S
C449        H451   1.086       .  S
C449        C450   1.343       .  D
C450        H452   1.087       .  S
C453        C454   1.209       .  T
C454        C455   1.417       .  S
C455        C456   1.209       .  T
C457        H459   1.086       .  S
C457        C458   1.337       .  D
C458        H460   1.088       .  S
C461        H463   1.087       .  S
C461        C462   1.334       .  D
C462        H464   1.087       .  S
C465        H467   1.085       .  S
C465        C466   1.340       .  D
C466        H468   1.087       .  S
C469        C470   1.536       .  S
C469        C475   1.526       .  S
C469        C473   1.536       .  S
C469        C609   1.467       .  S
C470        H477   1.085       .  S
C470        C471   1.371       .  D
C471        C472   1.533       .  S
C471        C622   1.479       .  S
C472        C476   1.537       .  S
C472        C474   1.528       .  S
C472        H478   1.110       .  S
C473        H479   1.086       .  S
C473        C474   1.370       .  D
C474        C618   1.470       .  S
C475        H480   1.087       .  S
C475        C476   1.361       .  D
C476        C613   1.472       .  S
C481        C482   1.533       .  S
C481        C487   1.525       .  S
C481        C485   1.531       .  S
C481        C612   1.467       .  S
C482        H489   1.085       .  S
C482        C483   1.369       .  D
C483        C484   1.539       .  S
C483        C601   1.482       .  S
C484        C488   1.554       .  S
C484        C486   1.544       .  S
C484        H490   1.110       .  S
C485        H491   1.086       .  S
C485        C486   1.368       .  D
C486        C606   1.485       .  S
C487        H492   1.087       .  S
C487        C488   1.364       .  D
C488        C598   1.489       .  S
C493        C494   1.534       .  S
C493        C499   1.531       .  S
C493        C497   1.526       .  S
C493        C581   1.465       .  S
C494        H501   1.085       .  S
C494        C495   1.376       .  D
C495        C496   1.543       .  S
C495        C594   1.492       .  S
C496        C500   1.548       .  S
C496        C498   1.544       .  S
C496        H502   1.111       .  S
C497        H503   1.087       .  S
C497        C498   1.358       .  D
C498        C586   1.477       .  S
C499        H504   1.085       .  S
C499        C500   1.367       .  D
C500        C589   1.494       .  S
C505        C506   1.521       .  S
C505        C511   1.537       .  S
C505        C509   1.532       .  S
C505        C584   1.463       .  S
C506        H513   1.088       .  S
C506        C507   1.357       .  D
C507        C508   1.539       .  S
C507        C574   1.469       .  S
C508        C512   1.536       .  S
C508        C510   1.529       .  S
C508        H514   1.111       .  S
C509        H515   1.086       .  S
C509        C510   1.368       .  D
C510        C569   1.467       .  S
C511        H516   1.084       .  S
C511        C512   1.374       .  D
C512        C577   1.482       .  S
O517       Ni523   1.928       .  S
O517        C538   1.273       .  A
O518       Ni541   1.916   1_554  S
O518        C527   1.273       .  A
C520        O537   1.284       .  A
C520        C593   1.480       .  S
O521       Ni540   1.927       .  S
O521        C527   1.270       .  A
O522       Ni540   1.907   1_556  S
O522        C524   1.268       .  A
Ni523       O528   1.910       .  S
C524        O534   1.266       .  A
C524        C621   1.474       .  S
O525        C531   1.280       .  A
O526        C531   1.277       .  A
C527        C585   1.468       .  S
O528        C530   1.269   1_556  A
O529       Ni540   1.919       .  S
C530        C590   1.485       .  S
C531        C614   1.474       .  S
H532        O533   0.966       .  S
O533       Ni541   1.907   1_554  S
O533       Ni540   1.896       .  S
Ni535       O537   1.941   1_556  S
C538        O539   1.263       .  A
C538        C617   1.466       .  S
O543       Ni549   1.950       .  S
O543        C564   1.277       .  A
O544        C553   1.261   1_545  A
O545       Ni549   1.908       .  S
O545       Ni561   1.923       .  S
O545        H568   0.966       .  S
C546        O563   1.277       .  A
C546        O555   1.278       .  A
C546        C573   1.475       .  S
O547       Ni566   1.925       .  S
O547        C553   1.271       .  A
O548       Ni566   1.907       .  S
O548        C550   1.268       .  A
Ni549       O552   1.945       .  S
Ni549       O554   1.914       .  S
C550        C602   1.475       .  S
O551       Ni567   1.919       .  S
O551        C557   1.274       .  A
C553        C570   1.461       .  S
O554        C556   1.271       .  A
C556        O562   1.267       .  A
C556        C578   1.473       .  S
C557        C597   1.485       .  S
O559       Ni566   1.894   1_455  S
Ni561       O565   1.907       .  S
C564        O565   1.268       .  A
C564        C605   1.476       .  S
C569        H571   1.087       .  S
C569        C570   1.334       .  D
C570        H572   1.087       .  S
C573        H575   1.086       .  S
C573        C574   1.341       .  D
C574        H576   1.087       .  S
C577        H579   1.087       .  S
C577        C578   1.341       .  D
C578        H580   1.085       .  S
C581        C582   1.204       .  T
C582        C583   1.408       .  S
C583        C584   1.203       .  T
C585        H587   1.087       .  S
C585        C586   1.334       .  D
C586        H588   1.087       .  S
C589        H591   1.086       .  S
C589        C590   1.354       .  D
C590        H592   1.085       .  S
C593        H595   1.085       .  S
C593        C594   1.344       .  D
C594        H596   1.086       .  S
C597        H599   1.085       .  S
C597        C598   1.342       .  D
C598        H600   1.087       .  S
C601        H603   1.086       .  S
C601        C602   1.345       .  D
C602        H604   1.085       .  S
C605        H607   1.086       .  S
C605        C606   1.343       .  D
C606        H608   1.086       .  S
C609        C610   1.205       .  T
C610        C611   1.411       .  S
C611        C612   1.205       .  T
C613        H615   1.087       .  S
C613        C614   1.345       .  D
C614        H616   1.085       .  S
C617        H619   1.087       .  S
C617        C618   1.335       .  D
C618        H620   1.087       .  S
C621        H623   1.085       .  S
C621        C622   1.342       .  D
C622        H624   1.086       .  S
