geometry optimzed in LAMMPS
_audit_creation_date              2020-12-01 
_audit_creation_method            'lammps2cif' 
_symmetry_space_group_name_H-M    'P1' 
_symmetry_Int_Tables_number       1 
_symmetry_cell_setting            triclinic 
loop_ 
_symmetry_equiv_pos_as_xyz 
  x,y,z 
_cell_length_a                    38.39614451 
_cell_length_b                    37.53425448567073 
_cell_length_c                    36.830060120768806 
_cell_angle_alpha                 90.34029342080454 
_cell_angle_beta                  89.27077022956351 
_cell_angle_gamma                 89.06506993266842 
loop_ 
_atom_site_label 
_atom_site_type_symbol 
_atom_site_fract_x 
_atom_site_fract_y 
_atom_site_fract_z 
_atom_site_charge 
N1          N  0.46775217  0.45673511  0.07165774    -0.07000
N2          N  0.44421152  0.45085171  0.09723221    -0.59100
N3          N  0.04834300  0.43368526  0.04011517    -0.06700
N4          N  0.07448200  0.41080175  0.04400127    -0.61200
N5          N  0.04911789  0.45807202  0.06589914    -0.06300
N6          N  0.07594567  0.45216356  0.08753404    -0.59100
N7          N  0.46643368  0.43198081  0.04630684    -0.05900
N8          N  0.44195064  0.40883205  0.05412379    -0.61600
C9          C  0.42795476  0.42115147  0.08575866     0.95200
C10         C  0.09187487  0.42251777  0.07348121     0.95000
N11         N  0.03694451  0.45508631  0.42845283    -0.07200
N12         N  0.05628631  0.44650517  0.39976834    -0.59700
N13         N  0.46236596  0.42872730  0.45739673    -0.05300
N14         N  0.44023001  0.40283297  0.45098770    -0.60900
N15         N  0.45958211  0.45368493  0.43249588    -0.07200
N16         N  0.43542883  0.44518058  0.40875773    -0.60000
N17         N  0.03991015  0.43066837  0.45381680    -0.04900
N18         N  0.06156757  0.40496812  0.44284192    -0.61000
Mn19       Mn  0.50478026  0.42943040  0.49786854     1.18400
C20         C  0.07155457  0.41541058  0.40924670     0.97300
C21         C  0.42341847  0.41356066  0.42079004     0.97900
N22         N  0.04519397  0.04125042  0.06707141    -0.07200
N23         N  0.06957946  0.04887429  0.09085859    -0.63500
N24         N  0.46283192  0.06432161  0.04450344    -0.06000
N25         N  0.43775147  0.08785243  0.05175034    -0.64200
N26         N  0.46494417  0.04044931  0.07045871    -0.06700
N27         N  0.44141701  0.04762520  0.09614959    -0.63800
N28         N  0.04341614  0.06576925  0.04176899    -0.05600
N29         N  0.06663288  0.09061743  0.04807148    -0.64500
Mn30       Mn  0.00680333  0.99859255  0.06973727     1.10700
C31         C  0.08319628  0.07962652  0.07854971     0.98500
C32         C  0.42425710  0.07694711  0.08379775     0.98600
N33         N  0.45646980  0.04159798  0.43430980    -0.06700
N34         N  0.43240359  0.04944203  0.41023860    -0.62100
N35         N  0.03750696  0.06310963  0.45456229    -0.06100
N36         N  0.06126829  0.08674072  0.44640149    -0.58800
N37         N  0.03624986  0.03842022  0.42913427    -0.07400
N38         N  0.05939803  0.04490525  0.40317188    -0.61700
N39         N  0.45753556  0.06654025  0.45953934    -0.06400
N40         N  0.43374982  0.09164319  0.45326235    -0.58900
Mn41       Mn  0.49843297  0.49692110  0.42905681     1.20200
Mn42       Mn  0.00096970  0.06567471  0.00076528     1.10100
Cl43       Cl  0.00288748  0.99802300  0.00030135    -0.86800
C44         C  0.41799592  0.08033287  0.42265819     0.95500
C45         C  0.07515286  0.07503060  0.41454853     0.95300
C46         C  0.17114384  0.16361366  0.32808536    -0.03400
C47         C  0.16681538  0.32119018  0.32542055    -0.03400
C48         C  0.18522707  0.33140081  0.16153824    -0.03400
C49         C  0.17674545  0.17522410  0.16153287    -0.03400
C50         C  0.32100814  0.16859651  0.33332350    -0.03400
C51         C  0.33443013  0.17642920  0.16920467    -0.03400
C52         C  0.34192095  0.32926685  0.17905802    -0.03400
C53         C  0.31975090  0.33107048  0.33872849    -0.03400
C54         C  0.34833199  0.33263181  0.22123388    -0.07000
C55         C  0.33705308  0.36440699  0.23934479    -0.18100
C56         C  0.33651234  0.36711075  0.27762081     0.10200
C57         C  0.33473146  0.33529796  0.29837261    -0.06900
C58         C  0.35282340  0.30652634  0.28148928    -0.18200
C59         C  0.36286112  0.30644024  0.24475693     0.10200
S60         S  0.35283104  0.40855123  0.29549440    -0.33100
S61         S  0.40365319  0.28381754  0.23592514    -0.33100
H62         H  0.41760523  0.28838967  0.27081515     0.28200
H63         H  0.33321824  0.40978734  0.32749480     0.28200
H64         H  0.33188887  0.38809896  0.22350561     0.18800
H65         H  0.36266014  0.28529548  0.29795361     0.18800
C66         C  0.34448775  0.21498955  0.15511710    -0.07000
C67         C  0.37681409  0.23093957  0.16180572    -0.18100
C68         C  0.37961535  0.26867759  0.16220436     0.10200
C69         C  0.34840504  0.29010307  0.16223230    -0.06900
C70         C  0.32268316  0.27434806  0.14035989    -0.18200
C71         C  0.32191446  0.23739244  0.13454146     0.10200
S72         S  0.42206945  0.28555033  0.15056274    -0.33100
S73         S  0.29590359  0.22075755  0.09786848    -0.33100
H74         H  0.28213592  0.25367593  0.08630122     0.28200
H75         H  0.41973944  0.31649105  0.17122341     0.28200
H76         H  0.39943641  0.21451277  0.16759474     0.18800
H77         H  0.30328417  0.29072573  0.12724973     0.18800
C78         C  0.33034007  0.16705957  0.29077552    -0.07000
C79         C  0.32060545  0.13875779  0.26749593    -0.18100
C80         C  0.32526722  0.13949436  0.22925471     0.10200
C81         C  0.33807731  0.17054372  0.21172571    -0.06900
C82         C  0.35270806  0.19605294  0.23520342    -0.18200
C83         C  0.35181444  0.19297747  0.27317134     0.10200
S84         S  0.31625219  0.09951454  0.20353921    -0.33100
S85         S  0.38509069  0.21830055  0.29552462    -0.33100
H86         H  0.38977399  0.19684431  0.32589702     0.28200
H87         H  0.30645688  0.07767243  0.23269339     0.28200
H88         H  0.31213196  0.11435487  0.27862179     0.18800
H89         H  0.36597011  0.21863836  0.22476904     0.18800
C90         C  0.31863370  0.21047374  0.34137616    -0.07000
C91         C  0.34055321  0.22884843  0.36580678    -0.18100
C92         C  0.33925175  0.26690185  0.37042209     0.10200
C93         C  0.31888924  0.28872325  0.34638463    -0.06900
C94         C  0.29561536  0.26971761  0.32464069    -0.18200
C95         C  0.29378654  0.23270641  0.32315088     0.10200
S96         S  0.36031334  0.28502863  0.40981320    -0.33100
S97         S  0.25602290  0.21786208  0.29909268    -0.33100
H98         H  0.26757326  0.18468422  0.28725702     0.28200
H99         H  0.37457528  0.25297441  0.42304982     0.28200
H100        H  0.35831402  0.21318210  0.38200524     0.18800
H101        H  0.27750592  0.28443012  0.30810718     0.18800
C102        C  0.29362529  0.17258635  0.16360568    -0.07000
C103        C  0.27681439  0.14673170  0.14162726    -0.18100
C104        C  0.23999068  0.14706910  0.13598942     0.10200
C105        C  0.21787575  0.17155208  0.15622090    -0.06900
C106        C  0.23548617  0.19625155  0.17791877    -0.18200
C107        C  0.27093629  0.19732270  0.18130885     0.10200
S108        S  0.22490859  0.11411822  0.10444772    -0.33100
S109        S  0.28479216  0.23181131  0.21048572    -0.33100
H110        H  0.28652149  0.20685537  0.23753033     0.28200
H111        H  0.19974456  0.13592672  0.08830813     0.28200
H112        H  0.29178109  0.12555911  0.12875838     0.18800
H113        H  0.22059805  0.21531755  0.19419289     0.18800
C114        C  0.17316892  0.29263053  0.14980632    -0.07000
C115        C  0.19334963  0.27139668  0.12573600    -0.18100
C116        C  0.18951389  0.23428789  0.12419200     0.10200
C117        C  0.17017128  0.21617505  0.15220950    -0.06900
C118        C  0.14598174  0.23808831  0.17142720    -0.18200
C119        C  0.14433330  0.27504973  0.16625944     0.10200
S120        S  0.20923340  0.21254364  0.08517815    -0.33100
S121        S  0.10547313  0.29761529  0.18263131    -0.33100
H122        H  0.10627851  0.32405113  0.15589356     0.28200
H123        H  0.18022289  0.19195575  0.07740809     0.28200
H124        H  0.21222386  0.28381094  0.10795946     0.18800
H125        H  0.12580595  0.22711613  0.18785476     0.18800
C126        C  0.22715133  0.33363049  0.15788341    -0.07000
C127        C  0.24699967  0.30672963  0.17438550    -0.18100
C128        C  0.27740297  0.31457670  0.19206897     0.10200
C129        C  0.30104940  0.33786593  0.17546721    -0.06900
C130        C  0.28526817  0.36225249  0.15078537    -0.18200
C131        C  0.24888737  0.36070241  0.14211249     0.10200
S132        S  0.27094786  0.31493322  0.24013750    -0.33100
S133        S  0.23599953  0.38764480  0.10425353    -0.33100
H134        H  0.22116110  0.35882626  0.08581448     0.28200
H135        H  0.29703026  0.28983252  0.24673951     0.28200
H136        H  0.23787955  0.28020165  0.17765899     0.18800
H137        H  0.30084264  0.38193358  0.13722048     0.18800
C138        C  0.17588358  0.33309054  0.20446098    -0.07000
C139        C  0.18711713  0.30302709  0.22438230    -0.18100
C140        C  0.17750708  0.29556014  0.25967628     0.10200
C141        C  0.16358277  0.32254931  0.28253305    -0.06900
C142        C  0.15271853  0.35402776  0.26405355    -0.18200
C143        C  0.15346627  0.35675463  0.22550063     0.10200
S144        S  0.17188978  0.24888212  0.26684798    -0.33100
S145        S  0.11873550  0.38372966  0.20669109    -0.33100
H146        H  0.10089377  0.39214648  0.23931092     0.28200
H147        H  0.20313386  0.23756781  0.24998644     0.28200
H148        H  0.19691200  0.28017904  0.21035607     0.18800
H149        H  0.14169240  0.37612406  0.27944938     0.18800
C150        C  0.20572650  0.33274102  0.33462296    -0.07000
C151        C  0.22532078  0.35214994  0.30915734    -0.18100
C152        C  0.26025188  0.36073413  0.31421377     0.10200
C153        C  0.27993691  0.34346373  0.34179311    -0.06900
C154        C  0.25953179  0.32944870  0.37045255    -0.18200
C155        C  0.22298518  0.32721259  0.36877481     0.10200
S156        S  0.27005206  0.40429946  0.29728691    -0.33100
S157        S  0.20182255  0.31801718  0.41182988    -0.33100
H158        H  0.16762370  0.31425010  0.40050888     0.28200
H159        H  0.25442490  0.39958441  0.26322691     0.28200
H160        H  0.21261015  0.36469113  0.28667473     0.18800
H161        H  0.27253911  0.31948700  0.39438207     0.18800
C162        C  0.16775850  0.16420947  0.28437615    -0.07000
C163        C  0.19753906  0.15591748  0.26304826    -0.18100
C164        C  0.19671564  0.14923358  0.22586925     0.10200
C165        C  0.17060981  0.16553057  0.20397936    -0.06900
C166        C  0.13934533  0.17235292  0.22355032    -0.18200
C167        C  0.13714570  0.17197604  0.26246499     0.10200
S168        S  0.22478688  0.11292807  0.21001089    -0.33100
S169        S  0.09384217  0.18302327  0.27901035    -0.33100
H170        H  0.09317598  0.16172550  0.30970949     0.28200
H171        H  0.24235834  0.10606360  0.24255081     0.28200
H172        H  0.22246555  0.15238064  0.27439529     0.18800
H173        H  0.11573825  0.17680770  0.20845648     0.18800
C174        C  0.20946022  0.14998105  0.34127328    -0.07000
C175        C  0.22537881  0.16408229  0.37203355    -0.18100
C176        C  0.26108099  0.17097458  0.37233135     0.10200
C177        C  0.28308991  0.15474566  0.34457811    -0.06900
C178        C  0.26773488  0.12373303  0.32981148    -0.18200
C179        C  0.23067153  0.12086638  0.32820234     0.10200
S180        S  0.27348583  0.19992887  0.40965814    -0.33100
S181        S  0.21214797  0.07956858  0.31393247    -0.33100
H182        H  0.24343833  0.06318727  0.30185191     0.28200
H183        H  0.30883278  0.19249253  0.41323064     0.28200
H184        H  0.21028915  0.17000575  0.39581037     0.18800
H185        H  0.28381295  0.10098380  0.32275507     0.18800
C186        C  0.16201462  0.28121401  0.33958169    -0.07000
C187        C  0.19241822  0.25956048  0.34376848    -0.18100
C188        C  0.18959951  0.22566184  0.35790874     0.10200
C189        C  0.16417327  0.20424220  0.34164366    -0.06900
C190        C  0.13171746  0.22288862  0.34130145    -0.18200
C191        C  0.13023933  0.26109189  0.34421178     0.10200
S192        S  0.18438532  0.23048935  0.40681768    -0.33100
S193        S  0.09137593  0.27792592  0.36641400    -0.33100
H194        H  0.10918457  0.30058481  0.39001504     0.28200
H195        H  0.21687095  0.24646045  0.41102465     0.28200
H196        H  0.21832391  0.26839274  0.33790173     0.18800
H197        H  0.10804839  0.20814831  0.34417319     0.18800
C198        C  0.14527428  0.13800402  0.34776843    -0.03000
C199        C  0.14154653  0.14354702  0.38565125    -0.18100
C200        C  0.12102274  0.12251628  0.40823205     0.10200
C201        C  0.10117904  0.09518308  0.39293617    -0.06900
C202        C  0.10478153  0.08824254  0.35568069    -0.18200
C203        C  0.12671135  0.10816976  0.33293272     0.10200
S204        S  0.12177844  0.13079169  0.45677023    -0.33100
S205        S  0.12470298  0.09373442  0.28593370    -0.33100
H206        H  0.15898630  0.09844929  0.27501429     0.28200
H207        H  0.14730379  0.15725251  0.45686470     0.28200
H208        H  0.15450869  0.16525217  0.39827831     0.18800
H209        H  0.08970115  0.06706959  0.34381332     0.18800
C210        C  0.12112791  0.40231369  0.09141446    -0.07000
C211        C  0.13884972  0.41719009  0.12107259    -0.18100
C212        C  0.16288777  0.39703865  0.14192260     0.10200
C213        C  0.16608291  0.35926821  0.13622776    -0.06900
C214        C  0.15222762  0.34682532  0.10286494    -0.18200
C215        C  0.13119104  0.36759959  0.08033950     0.10200
S216        S  0.18740587  0.42227848  0.17487134    -0.33100
S217        S  0.11780309  0.34819537  0.03766562    -0.33100
H218        H  0.14382694  0.32141974  0.03518076     0.28200
H219        H  0.20654008  0.39443306  0.19032627     0.28200
H220        H  0.13403216  0.44490638  0.12815119     0.18800
H221        H  0.15763792  0.32022410  0.09325192     0.18800
C222        C  0.35868562  0.14924378  0.14790176    -0.07000
C223        C  0.35232984  0.14297116  0.11078958    -0.18100
C224        C  0.37099920  0.11731569  0.09040983     0.10200
C225        C  0.39932694  0.09890006  0.10577359    -0.06900
C226        C  0.40778448  0.10630256  0.14165119    -0.18200
C227        C  0.38930051  0.13202605  0.16233677     0.10200
S228        S  0.35631050  0.10831537  0.04527264    -0.33100
S229        S  0.41098804  0.14596542  0.20316944    -0.33100
H230        H  0.42877467  0.11363521  0.20987396     0.28200
H231        H  0.36695923  0.07226984  0.04460209     0.28200
H232        H  0.33178586  0.15740369  0.09735646     0.18800
H233        H  0.43114851  0.09405419  0.15250140     0.18800
C234        C  0.10786722  0.10238840  0.09925035    -0.07000
C235        C  0.10512436  0.13898188  0.09422714    -0.18100
C236        C  0.12511016  0.16345613  0.11338433     0.10200
C237        C  0.15190673  0.15115918  0.13805834    -0.06900
C238        C  0.15330904  0.11380307  0.14364398    -0.18200
C239        C  0.13231001  0.08954769  0.12452598     0.10200
S240        S  0.11253654  0.20906388  0.10318113    -0.33100
S241        S  0.13829913  0.04225520  0.13151385    -0.33100
H242        H  0.16558655  0.04443178  0.15651527     0.28200
H243        H  0.07649629  0.20326727  0.10061862     0.28200
H244        H  0.08606871  0.14895929  0.07519174     0.18800
H245        H  0.17160459  0.10323483  0.16281966     0.18800
C246        C  0.34491891  0.35220749  0.36432672    -0.07000
C247        C  0.38115941  0.34507809  0.35937997    -0.18100
C248        C  0.40700268  0.36430389  0.37713324     0.10200
C249        C  0.39743988  0.39189548  0.40142838    -0.06900
C250        C  0.36215271  0.39925009  0.40756367    -0.18200
C251        C  0.33575105  0.38039881  0.38978484     0.10200
S252        S  0.45182073  0.35201116  0.36739579    -0.33100
S253        S  0.29204366  0.39725535  0.39873927    -0.33100
H254        H  0.29846101  0.41519209  0.43156725     0.28200
H255        H  0.46612042  0.38566449  0.37364172     0.28200
H256        H  0.38978568  0.32399867  0.34110572     0.18800
H257        H  0.35531699  0.42094046  0.42596299     0.18800
C258        C  0.39367590  0.10228836  0.40097343    -0.07000
C259        C  0.40358895  0.11099488  0.36578271    -0.18100
C260        C  0.38135213  0.12963349  0.34222510     0.10200
C261        C  0.34873224  0.14531225  0.35563236    -0.06900
C262        C  0.33907428  0.13369850  0.39112179    -0.18200
C263        C  0.36028551  0.11230512  0.41301396     0.10200
S264        S  0.39731595  0.12854071  0.29584478    -0.33100
S265        S  0.34141839  0.09548046  0.45431905    -0.33100
H266        H  0.36026677  0.06305874  0.45459149     0.28200
H267        H  0.41421449  0.09499855  0.29718935     0.28200
H268        H  0.42895451  0.10174953  0.35604827     0.18800
H269        H  0.31320001  0.13775012  0.40162421     0.18800
C270        C  0.09534730  0.39495290  0.38536860    -0.07000
C271        C  0.08207529  0.37440777  0.35711580    -0.18100
C272        C  0.10375472  0.35194344  0.33564469     0.10200
C273        C  0.14037909  0.34885858  0.34360157    -0.06900
C274        C  0.15301101  0.37488310  0.36833560    -0.18200
C275        C  0.13126513  0.39631353  0.38991584     0.10200
S276        S  0.08147948  0.33097496  0.29800849    -0.33100
S277        S  0.15122217  0.42450394  0.42343962    -0.33100
H278        H  0.12647486  0.45244879  0.42198559     0.28200
H279        H  0.10271334  0.30074317  0.29307037     0.28200
H280        H  0.05431699  0.37546458  0.35207272     0.18800
H281        H  0.18026604  0.37918754  0.37237564     0.18800
C282        C  0.40346879  0.40085941  0.10876962    -0.07000
C283        C  0.40849556  0.40191962  0.14615382    -0.18100
C284        C  0.39144939  0.37886312  0.16996433     0.10200
C285        C  0.36466307  0.35582307  0.15648650    -0.06900
C286        C  0.35991070  0.35563188  0.11835381    -0.18200
C287        C  0.37848820  0.37767650  0.09475854     0.10200
S288        S  0.41040009  0.37736010  0.21486953    -0.33100
S289        S  0.36814833  0.37568846  0.04718202    -0.33100
H290        H  0.37341887  0.41214142  0.04080245     0.28200
H291        H  0.44388367  0.38926016  0.20549342     0.28200
H292        H  0.42814477  0.41943074  0.15671423     0.18800
H293        H  0.34097765  0.33815216  0.10650125     0.18800
N294        N  0.46711087  0.45535620  0.56836644    -0.07000
N295        N  0.44353234  0.44902614  0.59375144    -0.59100
N296        N  0.04624999  0.43304095  0.54087374    -0.06700
N297        N  0.07209264  0.40994781  0.54531519    -0.61200
N298        N  0.04667770  0.45738665  0.56675993    -0.06300
N299        N  0.07281008  0.45098544  0.58922280    -0.59100
N300        N  0.46683928  0.43024550  0.54329566    -0.05900
N301        N  0.44302095  0.40636323  0.55120574    -0.61600
C302        C  0.42833964  0.41863967  0.58256716     0.95200
C303        C  0.08863215  0.42109930  0.57554126     0.95000
N304        N  0.03742465  0.45694751  0.92823132    -0.07200
N305        N  0.05727887  0.44896384  0.89971391    -0.59700
N306        N  0.46008932  0.43029348  0.96043694    -0.05300
N307        N  0.43854287  0.40397253  0.95352296    -0.60900
N308        N  0.45708959  0.45534794  0.93564612    -0.07200
N309        N  0.43339158  0.44647003  0.91153991    -0.60000
N310        N  0.04092930  0.43255838  0.95353859    -0.04900
N311        N  0.06337165  0.40752519  0.94278601    -0.61000
Mn312      Mn  0.50330340  0.43066790  0.00018710     1.18400
C313        C  0.07342973  0.41832369  0.90938212     0.97300
C314        C  0.42183318  0.41452861  0.92317751     0.97900
N315        N  0.04520686  0.04051660  0.56613324    -0.07200
N316        N  0.06986292  0.04818870  0.58955002    -0.63500
N317        N  0.46250723  0.06550882  0.54440545    -0.06000
N318        N  0.43702068  0.08863268  0.55119320    -0.64200
N319        N  0.46428791  0.04130832  0.57002319    -0.06700
N320        N  0.44006429  0.04790333  0.59515814    -0.63800
N321        N  0.04341995  0.06481101  0.54060043    -0.05600
N322        N  0.06694939  0.08946733  0.54630687    -0.64500
Mn323      Mn  0.00607085  0.99864914  0.57015224     1.10700
C324        C  0.08365276  0.07865450  0.57673000     0.98500
C325        C  0.42287690  0.07717929  0.58264874     0.98600
N326        N  0.45781910  0.03974352  0.93335175    -0.06700
N327        N  0.43486551  0.04818697  0.90827115    -0.62100
N328        N  0.03815294  0.06473981  0.95534286    -0.06100
N329        N  0.06147122  0.08890798  0.94740460    -0.58800
N330        N  0.03708715  0.04041121  0.92954793    -0.07400
N331        N  0.05997342  0.04763528  0.90361940    -0.61700
N332        N  0.45873089  0.06480591  0.95849455    -0.06400
N333        N  0.43594398  0.09057241  0.95110445    -0.58900
Mn334      Mn  0.49631887  0.49817426  0.93167979     1.20200
Mn335      Mn  0.00051636  0.06518717  0.50036784     1.10100
Cl336      Cl  0.00141832  0.99752994  0.50074991    -0.86800
C337        C  0.42100381  0.07963539  0.91988697     0.95500
C338        C  0.07526278  0.07790296  0.91526300     0.95300
C339        C  0.17239221  0.16380691  0.82734362    -0.03400
C340        C  0.16731300  0.32207930  0.82623932    -0.03400
C341        C  0.18511578  0.33117190  0.66302949    -0.03400
C342        C  0.17492555  0.17476714  0.66121236    -0.03400
C343        C  0.32227052  0.16746526  0.83159745    -0.03400
C344        C  0.33263112  0.17623311  0.66732780    -0.03400
C345        C  0.34210646  0.32878307  0.67817970    -0.03400
C346        C  0.32121292  0.33022174  0.83802793    -0.03400
C347        C  0.34940702  0.33221214  0.72034176    -0.07000
C348        C  0.33851525  0.36399853  0.73870783    -0.18100
C349        C  0.33824069  0.36657781  0.77705179     0.10200
C350        C  0.33660623  0.33473491  0.79776493    -0.06900
C351        C  0.35495986  0.30617347  0.78073435    -0.18200
C352        C  0.36438539  0.30606880  0.74373163     0.10200
S353        S  0.35411943  0.40812166  0.79513838    -0.33100
S354        S  0.40439915  0.28246929  0.73367616    -0.33100
H355        H  0.41902876  0.28568005  0.76840389     0.28200
H356        H  0.33464702  0.40881920  0.82727350     0.28200
H357        H  0.33319098  0.38773293  0.72299462     0.18800
H358        H  0.36506211  0.28496262  0.79713143     0.18800
C359        C  0.34287214  0.21468772  0.65337605    -0.07000
C360        C  0.37552462  0.23014314  0.65957098    -0.18100
C361        C  0.37873297  0.26780213  0.66039703     0.10200
C362        C  0.34771036  0.28950991  0.66137717    -0.06900
C363        C  0.32143474  0.27428456  0.63976286    -0.18200
C364        C  0.32020158  0.23747427  0.63347149     0.10200
S365        S  0.42114083  0.28431977  0.64796050    -0.33100
S366        S  0.29378009  0.22152447  0.59679398    -0.33100
H367        H  0.27889644  0.25449863  0.58691221     0.28200
H368        H  0.41957517  0.31517751  0.66885303     0.28200
H369        H  0.39808726  0.21341308  0.66466885     0.18800
H370        H  0.30207442  0.29097046  0.62701117     0.18800
C371        C  0.33073108  0.16605823  0.78885987    -0.07000
C372        C  0.32026743  0.13803468  0.76556206    -0.18100
C373        C  0.32400360  0.13911944  0.72725357     0.10200
C374        C  0.33660863  0.17025117  0.70974566    -0.06900
C375        C  0.35160386  0.19565558  0.73310364    -0.18200
C376        C  0.35185027  0.19202330  0.77098194     0.10200
S377        S  0.31414583  0.09944236  0.70140038    -0.33100
S378        S  0.38587550  0.21675132  0.79271165    -0.33100
H379        H  0.39116041  0.19471252  0.82254134     0.28200
H380        H  0.30295350  0.07805811  0.73036349     0.28200
H381        H  0.31219622  0.11346160  0.77662930     0.18800
H382        H  0.36446336  0.21846829  0.72261269     0.18800
C383        C  0.32014192  0.20935610  0.83985984    -0.07000
C384        C  0.34260378  0.22763264  0.86385325    -0.18100
C385        C  0.34140478  0.26569385  0.86874379     0.10200
C386        C  0.32063062  0.28772865  0.84528909    -0.06900
C387        C  0.29722231  0.26878227  0.82362525    -0.18200
C388        C  0.29520047  0.23177238  0.82200969     0.10200
S389        S  0.36314020  0.28352145  0.90783035    -0.33100
S390        S  0.25732406  0.21725208  0.79785270    -0.33100
H391        H  0.26813824  0.18367116  0.78667545     0.28200
H392        H  0.38046009  0.25203314  0.91840542     0.28200
H393        H  0.36062010  0.21185754  0.87963818     0.18800
H394        H  0.27896877  0.28354357  0.80739054     0.18800
C395        C  0.29179889  0.17246092  0.66184190    -0.07000
C396        C  0.27486476  0.14679024  0.63976553    -0.18100
C397        C  0.23794234  0.14691826  0.63478085     0.10200
C398        C  0.21599295  0.17117189  0.65550043    -0.06900
C399        C  0.23374329  0.19574410  0.67719286    -0.18200
C400        C  0.26921132  0.19699505  0.67992649     0.10200
S401        S  0.22250110  0.11390487  0.60352253    -0.33100
S402        S  0.28322442  0.23097424  0.70942819    -0.33100
H403        H  0.28490136  0.20515969  0.73562583     0.28200
H404        H  0.19778233  0.13605316  0.58708467     0.28200
H405        H  0.28982152  0.12591601  0.62637618     0.18800
H406        H  0.21897464  0.21449708  0.69407280     0.18800
C407        C  0.17325579  0.29201109  0.65267308    -0.07000
C408        C  0.19238370  0.27115353  0.62737780    -0.18100
C409        C  0.18767311  0.23425341  0.62463300     0.10200
C410        C  0.16826058  0.21574901  0.65228349    -0.06900
C411        C  0.14467706  0.23749056  0.67237936    -0.18200
C412        C  0.14423818  0.27466506  0.66926809     0.10200
S413        S  0.20699700  0.21321523  0.58499130    -0.33100
S414        S  0.10660803  0.29737154  0.68871518    -0.33100
H415        H  0.10595693  0.32476542  0.66312312     0.28200
H416        H  0.17818701  0.19245130  0.57710404     0.28200
H417        H  0.21095175  0.28375559  0.60940037     0.18800
H418        H  0.12429359  0.22632301  0.68838817     0.18800
C419        C  0.22700234  0.33330104  0.65857506    -0.07000
C420        C  0.24686474  0.30691298  0.67567696    -0.18100
C421        C  0.27765497  0.31490129  0.69247865     0.10200
C422        C  0.30122203  0.33783588  0.67516410    -0.06900
C423        C  0.28527625  0.36112622  0.64942207    -0.18200
C424        C  0.24873673  0.35930926  0.64113316     0.10200
S425        S  0.27333841  0.31317376  0.74066718    -0.33100
S426        S  0.23563150  0.38334426  0.60136885    -0.33100
H427        H  0.21723578  0.35453941  0.58693762     0.28200
H428        H  0.29979266  0.28792580  0.74503703     0.28200
H429        H  0.23769169  0.28048746  0.67940600     0.18800
H430        H  0.30088267  0.37985202  0.63452758     0.18800
C431        C  0.17658488  0.33384414  0.70604749    -0.07000
C432        C  0.18779946  0.30396790  0.72651978    -0.18100
C433        C  0.17613322  0.29636307  0.76102572     0.10200
C434        C  0.16312975  0.32372967  0.78366467    -0.06900
C435        C  0.15309403  0.35546235  0.76531331    -0.18200
C436        C  0.15454193  0.35824056  0.72679264     0.10200
S437        S  0.16269416  0.25105925  0.76516343    -0.33100
S438        S  0.12166944  0.38724210  0.70764524    -0.33100
H439        H  0.10353387  0.39619229  0.73995557     0.28200
H440        H  0.19416884  0.23580418  0.75213743     0.28200
H441        H  0.19772827  0.28075720  0.71319773     0.18800
H442        H  0.14239248  0.37768410  0.78078065     0.18800
C443        C  0.20643042  0.33336475  0.83481649    -0.07000
C444        C  0.22630623  0.35169197  0.80875286    -0.18100
C445        C  0.26143501  0.35969498  0.81342630     0.10200
C446        C  0.28117800  0.34218576  0.84085857    -0.06900
C447        C  0.26075797  0.32810283  0.86954432    -0.18200
C448        C  0.22407968  0.32706393  0.86853223     0.10200
S449        S  0.27158707  0.40296211  0.79600066    -0.33100
S450        S  0.20312140  0.31921137  0.91197704    -0.33100
H451        H  0.16897127  0.31508589  0.90077994     0.28200
H452        H  0.25567738  0.39817032  0.76209497     0.28200
H453        H  0.21375756  0.36399051  0.78605418     0.18800
H454        H  0.27381757  0.31778077  0.89328476     0.18800
C455        C  0.16801535  0.16415053  0.78387408    -0.07000
C456        C  0.19738152  0.15593196  0.76197281    -0.18100
C457        C  0.19560458  0.14865917  0.72500433     0.10200
C458        C  0.16910065  0.16482705  0.70363492    -0.06900
C459        C  0.13812482  0.17156303  0.72380585    -0.18200
C460        C  0.13678868  0.17139551  0.76277952     0.10200
S461        S  0.22298466  0.11198385  0.70880817    -0.33100
S462        S  0.09400122  0.18282104  0.78062298    -0.33100
H463        H  0.09374299  0.16159451  0.81135274     0.28200
H464        H  0.24228382  0.10650930  0.74050029     0.28200
H465        H  0.22257325  0.15264018  0.77279675     0.18800
H466        H  0.11420882  0.17603239  0.70923754     0.18800
C467        C  0.21070947  0.14965068  0.83996266    -0.07000
C468        C  0.22666611  0.16317318  0.87094296    -0.18100
C469        C  0.26254691  0.16976513  0.87138803     0.10200
C470        C  0.28449875  0.15358983  0.84351439    -0.06900
C471        C  0.26885816  0.12298412  0.82835902    -0.18200
C472        C  0.23180446  0.12062759  0.82632848     0.10200
S473        S  0.27516524  0.19811523  0.90913716    -0.33100
S474        S  0.21328289  0.07964467  0.81118130    -0.33100
H475        H  0.24431052  0.06418762  0.79719874     0.28200
H476        H  0.31091680  0.19290751  0.91142001     0.28200
H477        H  0.21130028  0.16886031  0.89466430     0.18800
H478        H  0.28475355  0.10008575  0.82131409     0.18800
C479        C  0.16336244  0.28177972  0.83960195    -0.07000
C480        C  0.19403684  0.26008330  0.83957285    -0.18100
C481        C  0.19287224  0.22625279  0.85414952     0.10200
C482        C  0.16629355  0.20468022  0.84042057    -0.06900
C483        C  0.13364822  0.22313425  0.84276662    -0.18200
C484        C  0.13210299  0.26133297  0.84646120     0.10200
S485        S  0.19145434  0.23184900  0.90318621    -0.33100
S486        S  0.09364667  0.27805947  0.86952713    -0.33100
H487        H  0.11159938  0.30153851  0.89208596     0.28200
H488        H  0.22344205  0.24942262  0.90392075     0.28200
H489        H  0.21922798  0.26960415  0.83168039     0.18800
H490        H  0.11010576  0.20822881  0.84609652     0.18800
C491        C  0.14637285  0.13901367  0.84775216    -0.03000
C492        C  0.14132602  0.14663686  0.88515893    -0.18100
C493        C  0.11904391  0.12760225  0.90781244     0.10200
C494        C  0.10104033  0.09834360  0.89362532    -0.06900
C495        C  0.10640795  0.08916415  0.85707110    -0.18200
C496        C  0.12831430  0.10845055  0.83383274     0.10200
S497        S  0.11512753  0.14132729  0.95496521    -0.33100
S498        S  0.12600632  0.09260931  0.78726367    -0.33100
H499        H  0.15931980  0.09908933  0.77449607     0.28200
H500        H  0.13012517  0.17510937  0.95143149     0.28200
H501        H  0.15443922  0.16863138  0.89726521     0.18800
H502        H  0.09235005  0.06688734  0.84592788     0.18800
C503        C  0.11689716  0.40004469  0.59418701    -0.07000
C504        C  0.13893694  0.41627765  0.61963839    -0.18100
C505        C  0.16336792  0.39638054  0.64043292     0.10200
C506        C  0.16472995  0.35818807  0.63749981    -0.06900
C507        C  0.14604491  0.34394806  0.60771015    -0.18200
C508        C  0.12175339  0.36325064  0.58766332     0.10200
S509        S  0.19037261  0.42253446  0.67032893    -0.33100
S510        S  0.09649325  0.33867839  0.55490519    -0.33100
H511        H  0.10277608  0.30421165  0.56845635     0.28200
H512        H  0.20648126  0.39490377  0.68937904     0.28200
H513        H  0.13684674  0.44483748  0.62378962     0.18800
H514        H  0.14936791  0.31667849  0.59933698     0.18800
C515        C  0.35679164  0.14912529  0.64602794    -0.07000
C516        C  0.35074679  0.14323021  0.60881006    -0.18100
C517        C  0.36982559  0.11795326  0.58834507     0.10200
C518        C  0.39753131  0.09886868  0.60419658    -0.06900
C519        C  0.40551428  0.10584512  0.64023186    -0.18200
C520        C  0.38726295  0.13181966  0.66062397     0.10200
S521        S  0.35695853  0.11091606  0.54221488    -0.33100
S522        S  0.40958224  0.14628331  0.70086715    -0.33100
H523        H  0.42571341  0.11334674  0.70878684     0.28200
H524        H  0.36726581  0.07479671  0.54052971     0.28200
H525        H  0.33041912  0.15796388  0.59530351     0.18800
H526        H  0.42867013  0.09339493  0.65133792     0.18800
C527        C  0.10813809  0.10162853  0.59728765    -0.07000
C528        C  0.10564074  0.13820635  0.59169167    -0.18100
C529        C  0.12468627  0.16285667  0.61169791     0.10200
C530        C  0.15033798  0.15070115  0.63762139    -0.06900
C531        C  0.15155515  0.11343563  0.64357147    -0.18200
C532        C  0.13132170  0.08904255  0.62389809     0.10200
S533        S  0.11050885  0.20840494  0.60344673    -0.33100
S534        S  0.13658196  0.04187308  0.63221962    -0.33100
H535        H  0.15955817  0.04458719  0.66151586     0.28200
H536        H  0.10447650  0.20432632  0.56602661     0.28200
H537        H  0.08654510  0.14802581  0.57263045     0.18800
H538        H  0.16911683  0.10300179  0.66349379     0.18800
C539        C  0.34569108  0.35170814  0.86428262    -0.07000
C540        C  0.38217981  0.34591834  0.85954561    -0.18100
C541        C  0.40725605  0.36581147  0.87789936     0.10200
C542        C  0.39669526  0.39229868  0.90306617    -0.06900
C543        C  0.36118544  0.39827010  0.90902024    -0.18200
C544        C  0.33556332  0.37924889  0.89020432     0.10200
S545        S  0.45250713  0.35616607  0.86763401    -0.33100
S546        S  0.29163323  0.39571875  0.89843895    -0.33100
H547        H  0.29670262  0.40921685  0.93367710     0.28200
H548        H  0.46420725  0.39119180  0.87198044     0.28200
H549        H  0.39160224  0.32562048  0.84074951     0.18800
H550        H  0.35347183  0.41931690  0.92785788     0.18800
C551        C  0.39649680  0.10151680  0.89808546    -0.07000
C552        C  0.40478905  0.10812181  0.86190113    -0.18100
C553        C  0.38246685  0.12763713  0.83898134     0.10200
C554        C  0.35047724  0.14407114  0.85319674    -0.06900
C555        C  0.34224354  0.13413469  0.88948157    -0.18200
C556        C  0.36425861  0.11377518  0.91150146     0.10200
S557        S  0.39660495  0.12544872  0.79204440    -0.33100
S558        S  0.34769075  0.10122784  0.95536743    -0.33100
H559        H  0.36430567  0.06760263  0.95647373     0.28200
H560        H  0.43264410  0.12645372  0.79846372     0.28200
H561        H  0.42878443  0.09650040  0.85102049     0.18800
H562        H  0.31676396  0.13870218  0.90070510     0.18800
C563        C  0.09703330  0.39769571  0.88544684    -0.07000
C564        C  0.08319654  0.37572049  0.85867730    -0.18100
C565        C  0.10445028  0.35253265  0.83760419     0.10200
C566        C  0.14118531  0.34967176  0.84488079    -0.06900
C567        C  0.15436542  0.37644095  0.86845545    -0.18200
C568        C  0.13308797  0.39918003  0.88919997     0.10200
S569        S  0.08162717  0.33078521  0.80085269    -0.33100
S570        S  0.15400037  0.42908677  0.92051018    -0.33100
H571        H  0.12737026  0.45514784  0.92252966     0.28200
H572        H  0.10291839  0.30061676  0.79602989     0.28200
H573        H  0.05531451  0.37641863  0.85433561     0.18800
H574        H  0.18175210  0.38050633  0.87198070     0.18800
C575        C  0.40424402  0.39808089  0.60586932    -0.07000
C576        C  0.40894218  0.40029905  0.64330064    -0.18100
C577        C  0.39153210  0.37817278  0.66777114     0.10200
C578        C  0.36487669  0.35473414  0.65485760    -0.06900
C579        C  0.36045649  0.35333199  0.61666940    -0.18200
C580        C  0.37972226  0.37406767  0.59240649     0.10200
S581        S  0.41138485  0.37680787  0.71219034    -0.33100
S582        S  0.37143706  0.36858898  0.54464266    -0.33100
H583        H  0.37569627  0.40472978  0.53604228     0.28200
H584        H  0.42205164  0.41249486  0.71322946     0.28200
H585        H  0.42923179  0.41734165  0.65332368     0.18800
H586        H  0.34161655  0.33553097  0.60519758     0.18800
N587        N  0.46732813  0.95612099  0.07042394    -0.07000
N588        N  0.44385790  0.95031068  0.09605691    -0.59100
N589        N  0.04871307  0.93344463  0.03998774    -0.06700
N590        N  0.07455364  0.91040411  0.04462063    -0.61200
N591        N  0.04875679  0.95758528  0.06605195    -0.06300
N592        N  0.07457581  0.95114729  0.08884572    -0.59100
N593        N  0.46626692  0.93109575  0.04533822    -0.05900
N594        N  0.44200464  0.90778360  0.05340967    -0.61600
C595        C  0.42791410  0.92035004  0.08490923     0.95200
C596        C  0.09064610  0.92143685  0.07516207     0.95000
N597        N  0.03571246  0.95386255  0.42844049    -0.07200
N598        N  0.05487764  0.94497518  0.39972907    -0.59700
N599        N  0.46190770  0.93082944  0.45835192    -0.05300
N600        N  0.44024831  0.90453366  0.45198969    -0.60900
N601        N  0.45839800  0.95592043  0.43369773    -0.07200
N602        N  0.43420331  0.94709989  0.41014556    -0.60000
N603        N  0.03867404  0.92958260  0.45393026    -0.04900
N604        N  0.06010649  0.90367532  0.44307495    -0.61000
Mn605      Mn  0.50472700  0.93173784  0.49814133     1.18400
C606        C  0.06995291  0.91382359  0.40936953     0.97300
C607        C  0.42294855  0.91515494  0.42208762     0.97900
N608        N  0.04597473  0.54175662  0.06737927    -0.07200
N609        N  0.07076180  0.54901761  0.09082318    -0.63500
N610        N  0.46420555  0.56532873  0.04628009    -0.06000
N611        N  0.43935038  0.58905535  0.05328524    -0.64200
N612        N  0.46600603  0.54139023  0.07218406    -0.06700
N613        N  0.44234215  0.54877929  0.09769989    -0.63800
N614        N  0.04401807  0.56645992  0.04225879    -0.05600
N615        N  0.06758988  0.59103557  0.04837540    -0.64500
Mn616      Mn  0.00732362  0.49934549  0.07058917     1.10700
C617        C  0.08449077  0.57972853  0.07857554     0.98500
C618        C  0.42552506  0.57826030  0.08511252     0.98600
N619        N  0.45834918  0.53924906  0.43247167    -0.06700
N620        N  0.43485159  0.54715518  0.40780992    -0.62100
N621        N  0.03791408  0.56415549  0.45544729    -0.06100
N622        N  0.06176020  0.58788410  0.44770469    -0.58800
N623        N  0.03692431  0.53962434  0.42981741    -0.07400
N624        N  0.06036188  0.54631597  0.40419953    -0.61700
N625        N  0.45899451  0.56421285  0.45770956    -0.06400
N626        N  0.43550030  0.58940108  0.45084003    -0.58900
Mn627      Mn  0.49677712  0.99944702  0.42987855     1.20200
Mn628      Mn  0.00083957  0.56685922  0.00181958     1.10100
Cl629      Cl  0.00252172  0.49909001  0.00118734    -0.86800
C630        C  0.42040924  0.57817284  0.41984379     0.95500
C631        C  0.07598216  0.57641274  0.41589512     0.95300
C632        C  0.17421039  0.66309594  0.32967556    -0.03400
C633        C  0.16796853  0.82108990  0.32800959    -0.03400
C634        C  0.18543544  0.83124928  0.16449149    -0.03400
C635        C  0.17761121  0.67470801  0.16316303    -0.03400
C636        C  0.32351939  0.66848931  0.33274443    -0.03400
C637        C  0.33535470  0.67804121  0.16887021    -0.03400
C638        C  0.34169355  0.83034954  0.17957322    -0.03400
C639        C  0.32121057  0.83093114  0.33957046    -0.03400
C640        C  0.34899397  0.83340220  0.22171525    -0.07000
C641        C  0.33877366  0.86527462  0.24022304    -0.18100
C642        C  0.33830062  0.86755717  0.27858660     0.10200
C643        C  0.33622751  0.83554240  0.29913184    -0.06900
C644        C  0.35397370  0.80674817  0.28178578    -0.18200
C645        C  0.36347562  0.80681131  0.24488345     0.10200
S646        S  0.35473081  0.90882571  0.29674990    -0.33100
S647        S  0.40388686  0.78368551  0.23534595    -0.33100
H648        H  0.41828742  0.78744466  0.27012598     0.28200
H649        H  0.33523119  0.90993449  0.32882349     0.28200
H650        H  0.33397979  0.88919846  0.22462814     0.18800
H651        H  0.36377990  0.78511519  0.29782783     0.18800
C652        C  0.34501186  0.71666831  0.15475680    -0.07000
C653        C  0.37724947  0.73315543  0.16106406    -0.18100
C654        C  0.37918987  0.77106065  0.16135779     0.10200
C655        C  0.34756683  0.79140987  0.16264774    -0.06900
C656        C  0.32169571  0.77556520  0.14113155    -0.18200
C657        C  0.32177995  0.73875607  0.13465374     0.10200
S658        S  0.42044370  0.79191813  0.15197046    -0.33100
S659        S  0.29621506  0.72204996  0.09769134    -0.33100
H660        H  0.27982957  0.75445304  0.08836846     0.28200
H661        H  0.43976959  0.75997894  0.14753462     0.28200
H662        H  0.40010158  0.71710479  0.16682504     0.18800
H663        H  0.30186129  0.79175921  0.12850724     0.18800
C664        C  0.33209032  0.66739934  0.29010414    -0.07000
C665        C  0.32130937  0.63975735  0.26653399    -0.18100
C666        C  0.32629117  0.64065778  0.22841027     0.10200
C667        C  0.33911298  0.67186347  0.21121466    -0.06900
C668        C  0.35394629  0.69709432  0.23479619    -0.18200
C669        C  0.35382705  0.69317222  0.27266034     0.10200
S670        S  0.31750867  0.60075296  0.20245140    -0.33100
S671        S  0.38794182  0.71727720  0.29499457    -0.33100
H672        H  0.39289783  0.69445241  0.32431061     0.28200
H673        H  0.31098989  0.57780072  0.23170649     0.28200
H674        H  0.31166066  0.61565038  0.27722227     0.18800
H675        H  0.36724695  0.71965687  0.22435751     0.18800
C676        C  0.32124299  0.71028357  0.34106809    -0.07000
C677        C  0.34367925  0.72862679  0.36498327    -0.18100
C678        C  0.34198607  0.76660720  0.37019243     0.10200
C679        C  0.32086257  0.78851099  0.34692177    -0.06900
C680        C  0.29751479  0.76948870  0.32529135    -0.18200
C681        C  0.29596835  0.73248886  0.32343426     0.10200
S682        S  0.36333564  0.78436475  0.40958061    -0.33100
S683        S  0.25812159  0.71763172  0.29944545    -0.33100
H684        H  0.26937586  0.68438833  0.28765085     0.28200
H685        H  0.37988704  0.75267893  0.42081561     0.28200
H686        H  0.36192835  0.71293283  0.38057086     0.18800
H687        H  0.27911836  0.78418567  0.30909742     0.18800
C688        C  0.29455333  0.67383328  0.16345648    -0.07000
C689        C  0.27784912  0.64790841  0.14148471    -0.18100
C690        C  0.24088303  0.64741558  0.13683062     0.10200
C691        C  0.21872744  0.67149836  0.15750756    -0.06900
C692        C  0.23628086  0.69629798  0.17915470    -0.18200
C693        C  0.27175348  0.69808560  0.18172841     0.10200
S694        S  0.22556221  0.61347878  0.10656256    -0.33100
S695        S  0.28553102  0.73267760  0.21085796    -0.33100
H696        H  0.28777998  0.70761667  0.23774631     0.28200
H697        H  0.20087155  0.63507377  0.08939443     0.28200
H698        H  0.29304330  0.62725882  0.12800851     0.18800
H699        H  0.22136187  0.71492404  0.19598303     0.18800
C700        C  0.17394130  0.79199191  0.15421107    -0.07000
C701        C  0.19322028  0.77145875  0.12880010    -0.18100
C702        C  0.18969202  0.73440454  0.12661250     0.10200
C703        C  0.17060277  0.71565701  0.15437685    -0.06900
C704        C  0.14648676  0.73701559  0.17425973    -0.18200
C705        C  0.14540936  0.77418585  0.17117261     0.10200
S706        S  0.20988992  0.71363766  0.08725071    -0.33100
S707        S  0.10784346  0.79634806  0.19149167    -0.33100
H708        H  0.10764486  0.82512587  0.16753375     0.28200
H709        H  0.18235863  0.69110175  0.07973337     0.28200
H710        H  0.21132988  0.78439715  0.11056944     0.18800
H711        H  0.12629730  0.72557022  0.19028243     0.18800
C712        C  0.22717262  0.83364749  0.15967855    -0.07000
C713        C  0.24742057  0.80742781  0.17657956    -0.18100
C714        C  0.27770483  0.81613710  0.19387859     0.10200
C715        C  0.30091885  0.83934934  0.17658398    -0.06900
C716        C  0.28479929  0.86250769  0.15081454    -0.18200
C717        C  0.24846905  0.85986307  0.14210449     0.10200
S718        S  0.27222609  0.81625142  0.24202492    -0.33100
S719        S  0.23551591  0.88233015  0.10130804    -0.33100
H720        H  0.21688460  0.85315143  0.08803510     0.28200
H721        H  0.29762253  0.79021049  0.24778300     0.28200
H722        H  0.23887229  0.78072652  0.17988836     0.18800
H723        H  0.30008139  0.88163695  0.13612601     0.18800
C724        C  0.17734945  0.83381379  0.20759968    -0.07000
C725        C  0.18899524  0.80392301  0.22774191    -0.18100
C726        C  0.17831334  0.79600070  0.26250998     0.10200
C727        C  0.16445391  0.82284714  0.28532344    -0.06900
C728        C  0.15377904  0.85453915  0.26715867    -0.18200
C729        C  0.15543738  0.85795527  0.22869802     0.10200
S730        S  0.16892292  0.74968139  0.26773228    -0.33100
S731        S  0.12375004  0.88848994  0.20995125    -0.33100
H732        H  0.10305416  0.89353781  0.24144202     0.28200
H733        H  0.20055005  0.73668790  0.25287205     0.28200
H734        H  0.19916574  0.78107219  0.21414599     0.18800
H735        H  0.14269102  0.87647311  0.28277590     0.18800
C736        C  0.20666100  0.83346362  0.33714680    -0.07000
C737        C  0.22609189  0.85303282  0.31165984    -0.18100
C738        C  0.26129942  0.86090958  0.31613804     0.10200
C739        C  0.28122987  0.84283089  0.34298888    -0.06900
C740        C  0.26103168  0.82851498  0.37173366    -0.18200
C741        C  0.22434898  0.82726468  0.37083009     0.10200
S742        S  0.27186417  0.90419724  0.29908827    -0.33100
S743        S  0.20343980  0.81922822  0.41423033    -0.33100
H744        H  0.16943243  0.81459319  0.40283633     0.28200
H745        H  0.25533146  0.90007793  0.26543424     0.28200
H746        H  0.21316869  0.86604408  0.28959869     0.18800
H747        H  0.27424216  0.81808224  0.39533268     0.18800
C748        C  0.17029422  0.66363100  0.28605431    -0.07000
C749        C  0.19977613  0.65527155  0.26431089    -0.18100
C750        C  0.19842346  0.64858264  0.22713420     0.10200
C751        C  0.17189320  0.66465956  0.20564225    -0.06900
C752        C  0.14084006  0.67118044  0.22571965    -0.18200
C753        C  0.13930450  0.67111775  0.26467746     0.10200
S754        S  0.22639870  0.61245050  0.21072852    -0.33100
S755        S  0.09645852  0.68277891  0.28212836    -0.33100
H756        H  0.09573701  0.66099856  0.31245357     0.28200
H757        H  0.24431497  0.60541731  0.24304098     0.28200
H758        H  0.22478624  0.65147988  0.27538632     0.18800
H759        H  0.11693768  0.67533059  0.21105051     0.18800
C760        C  0.21246244  0.64921858  0.34253554    -0.07000
C761        C  0.22847106  0.66322540  0.37320044    -0.18100
C762        C  0.26413208  0.67058989  0.37297466     0.10200
C763        C  0.28591719  0.65449713  0.34484596    -0.06900
C764        C  0.27069245  0.62327110  0.33048843    -0.18200
C765        C  0.23364735  0.62016869  0.32929346     0.10200
S766        S  0.27645025  0.69994206  0.41011233    -0.33100
S767        S  0.21527322  0.57833752  0.31656473    -0.33100
H768        H  0.24643331  0.56217004  0.30382643     0.28200
H769        H  0.31219033  0.69504980  0.41320390     0.28200
H770        H  0.21331932  0.66881907  0.39708097     0.18800
H771        H  0.28698818  0.60065013  0.32334733     0.18800
C772        C  0.16435831  0.78086184  0.34167595    -0.07000
C773        C  0.19525868  0.75961426  0.34295837    -0.18100
C774        C  0.19397269  0.72567940  0.35734278     0.10200
C775        C  0.16776181  0.70384539  0.34306088    -0.06900
C776        C  0.13505006  0.72203593  0.34477368    -0.18200
C777        C  0.13318995  0.76018157  0.34825323     0.10200
S778        S  0.19169405  0.73112442  0.40638231    -0.33100
S779        S  0.09477647  0.77630556  0.37188075    -0.33100
H780        H  0.11261853  0.79990808  0.39439940     0.28200
H781        H  0.22324123  0.74942127  0.40787019     0.28200
H782        H  0.22054604  0.76937763  0.33577510     0.18800
H783        H  0.11164670  0.70691572  0.34817026     0.18800
C784        C  0.14823095  0.63782731  0.34967872    -0.03000
C785        C  0.14372208  0.64423202  0.38738060    -0.18100
C786        C  0.12200569  0.62417011  0.40979695     0.10200
C787        C  0.10249955  0.59644280  0.39463358    -0.06900
C788        C  0.10729474  0.58847487  0.35770647    -0.18200
C789        C  0.12985462  0.60777225  0.33507476     0.10200
S790        S  0.12044933  0.63459674  0.45789412    -0.33100
S791        S  0.12864484  0.59240078  0.28831544    -0.33100
H792        H  0.16277684  0.59783762  0.27738308     0.28200
H793        H  0.14894568  0.65767304  0.45864802     0.28200
H794        H  0.15670503  0.66612140  0.39987163     0.18800
H795        H  0.09255635  0.56700574  0.34591716     0.18800
C796        C  0.11821432  0.90013638  0.09444823    -0.07000
C797        C  0.14017558  0.91633164  0.11996087    -0.18100
C798        C  0.16406788  0.89635599  0.14127318     0.10200
C799        C  0.16477475  0.85810119  0.13901879    -0.06900
C800        C  0.14556811  0.84363405  0.10967038    -0.18200
C801        C  0.12226556  0.86317263  0.08865708     0.10200
S802        S  0.19168652  0.92262571  0.17044321    -0.33100
S803        S  0.09731333  0.83886257  0.05538075    -0.33100
H804        H  0.10411493  0.80407708  0.06776200     0.28200
H805        H  0.20643038  0.89519696  0.19090684     0.28200
H806        H  0.13861256  0.94498874  0.12355381     0.18800
H807        H  0.14792538  0.81607785  0.10212821     0.18800
C808        C  0.35986138  0.65114244  0.14776018    -0.07000
C809        C  0.35398001  0.64516367  0.11055921    -0.18100
C810        C  0.37324085  0.61999179  0.09020677     0.10200
C811        C  0.40047711  0.60048906  0.10643426    -0.06900
C812        C  0.40831334  0.60752905  0.14250753    -0.18200
C813        C  0.39054217  0.63423660  0.16243361     0.10200
S814        S  0.36124781  0.61374446  0.04365265    -0.33100
S815        S  0.41270269  0.64961176  0.20257150    -0.33100
H816        H  0.44296566  0.62808950  0.20014224     0.28200
H817        H  0.37022146  0.57727301  0.04208288     0.28200
H818        H  0.33366899  0.65977995  0.09694599     0.18800
H819        H  0.43079651  0.59420234  0.15398957     0.18800
C820        C  0.10958479  0.60218426  0.09924055    -0.07000
C821        C  0.10818632  0.63869624  0.09315203    -0.18100
C822        C  0.12774903  0.66308952  0.11292309     0.10200
C823        C  0.15297149  0.65074231  0.13929699    -0.06900
C824        C  0.15344229  0.61348664  0.14550929    -0.18200
C825        C  0.13249567  0.58936638  0.12611590     0.10200
S826        S  0.11478732  0.70872216  0.10325453    -0.33100
S827        S  0.13618114  0.54226571  0.13548659    -0.33100
H828        H  0.16176948  0.54445750  0.16236965     0.28200
H829        H  0.11112190  0.70400762  0.06552957     0.28200
H830        H  0.08953618  0.64881046  0.07376872     0.18800
H831        H  0.17069795  0.60291620  0.16571948     0.18800
C832        C  0.34593855  0.85227547  0.36540793    -0.07000
C833        C  0.38229331  0.84582150  0.36056506    -0.18100
C834        C  0.40767919  0.86540467  0.37865519     0.10200
C835        C  0.39749896  0.89295640  0.40272349    -0.06900
C836        C  0.36212548  0.89964414  0.40873906    -0.18200
C837        C  0.33619939  0.88016708  0.39102733     0.10200
S838        S  0.45276890  0.85369307  0.36979919    -0.33100
S839        S  0.29236457  0.89626071  0.40043628    -0.33100
H840        H  0.29826746  0.90884391  0.43587430     0.28200
H841        H  0.46596915  0.88813622  0.37408355     0.28200
H842        H  0.39131710  0.82498734  0.34216390     0.18800
H843        H  0.35473516  0.92127319  0.42702800     0.18800
C844        C  0.39596388  0.59998303  0.39816094    -0.07000
C845        C  0.40399592  0.60596009  0.36183713    -0.18100
C846        C  0.38225914  0.62638012  0.33922204     0.10200
C847        C  0.35151315  0.64474320  0.35405346    -0.06900
C848        C  0.34349006  0.63552268  0.39056477    -0.18200
C849        C  0.36466681  0.61397555  0.41216593     0.10200
S850        S  0.39708463  0.62533914  0.29246256    -0.33100
S851        S  0.34795849  0.60242472  0.45623140    -0.33100
H852        H  0.36480977  0.56902564  0.45870782     0.28200
H853        H  0.41074256  0.59028533  0.29240401     0.28200
H854        H  0.42788195  0.59417113  0.35085155     0.18800
H855        H  0.31851525  0.64136813  0.40227982     0.18800
C856        C  0.09425694  0.89353102  0.38602690    -0.07000
C857        C  0.08160072  0.87116585  0.35895445    -0.18100
C858        C  0.10408576  0.84914419  0.33799498     0.10200
C859        C  0.14073891  0.84771292  0.34605009    -0.06900
C860        C  0.15258071  0.87476269  0.36999653    -0.18200
C861        C  0.13009286  0.89669139  0.39016755     0.10200
S862        S  0.08276159  0.82644258  0.30079312    -0.33100
S863        S  0.14887489  0.92818597  0.42124994    -0.33100
H864        H  0.12389854  0.95539720  0.41590546     0.28200
H865        H  0.10510926  0.79702040  0.29637705     0.28200
H866        H  0.05379865  0.87074616  0.35418858     0.18800
H867        H  0.17974495  0.87969180  0.37414379     0.18800
C868        C  0.40378676  0.90012645  0.10825475    -0.07000
C869        C  0.40998986  0.90038080  0.14546967    -0.18100
C870        C  0.39253538  0.87786677  0.16948732     0.10200
C871        C  0.36465707  0.85614293  0.15651923    -0.06900
C872        C  0.35925976  0.85615426  0.11847560    -0.18200
C873        C  0.37800822  0.87770565  0.09460363     0.10200
S874        S  0.41320584  0.87413539  0.21324179    -0.33100
S875        S  0.36726014  0.87565619  0.04712774    -0.33100
H876        H  0.37337942  0.91187920  0.04034790     0.28200
H877        H  0.42327750  0.90994820  0.21589216     0.28200
H878        H  0.43127791  0.91612799  0.15547812     0.18800
H879        H  0.33981679  0.83909034  0.10689726     0.18800
N880        N  0.46761416  0.95675113  0.56906557    -0.07000
N881        N  0.44435066  0.94998459  0.59460754    -0.59100
N882        N  0.04621831  0.93216616  0.54043694    -0.06700
N883        N  0.07225766  0.90916871  0.54415192    -0.61200
N884        N  0.04731380  0.95663986  0.56611522    -0.06300
N885        N  0.07414939  0.95049219  0.58772223    -0.59100
N886        N  0.46738554  0.93183995  0.54381550    -0.05900
N887        N  0.44390453  0.90764657  0.55168200    -0.61600
C888        C  0.42940532  0.91954408  0.58324460     0.95200
C889        C  0.08966228  0.92058657  0.57371867     0.95000
N890        N  0.03847565  0.95620850  0.92785663    -0.07200
N891        N  0.05769036  0.94800362  0.89901424    -0.59700
N892        N  0.46083422  0.92901162  0.95950243    -0.05300
N893        N  0.43889913  0.90295704  0.95301907    -0.60900
N894        N  0.45809016  0.95384874  0.93445038    -0.07200
N895        N  0.43417281  0.94509562  0.91056740    -0.60000
N896        N  0.04207416  0.93182805  0.95316063    -0.04900
N897        N  0.06402184  0.90651134  0.94203232    -0.61000
Mn898      Mn  0.50359918  0.92950873  0.99962299     1.18400
C899        C  0.07349670  0.91718893  0.90840440     0.97300
C900        C  0.42224057  0.91347929  0.92265968     0.97900
N901        N  0.04391509  0.54148181  0.56743771    -0.07200
N902        N  0.06841233  0.54912263  0.59114293    -0.63500
N903        N  0.46267372  0.56414044  0.54329555    -0.06000
N904        N  0.43791455  0.58802353  0.55061623    -0.64200
N905        N  0.46445273  0.54013841  0.56914066    -0.06700
N906        N  0.44103180  0.54762836  0.59487329    -0.63800
N907        N  0.04239051  0.56580607  0.54191982    -0.05600
N908        N  0.06587737  0.59046307  0.54795121    -0.64500
Mn909      Mn  0.00498370  0.49904295  0.57027591     1.10700
C910        C  0.08234502  0.57965738  0.57854422     0.98500
C911        C  0.42425523  0.57724566  0.58262883     0.98600
N912        N  0.45686054  0.54119516  0.93589633    -0.06700
N913        N  0.43314451  0.54946719  0.91157294    -0.62100
N914        N  0.03762527  0.56597742  0.95568737    -0.06100
N915        N  0.06104901  0.59004048  0.94756325    -0.58800
N916        N  0.03632366  0.54161807  0.92990502    -0.07400
N917        N  0.05912134  0.54878305  0.90380555    -0.61700
N918        N  0.45841972  0.56629520  0.96093327    -0.06400
N919        N  0.43530187  0.59197588  0.95418785    -0.58900
Mn920      Mn  0.49734064  0.99658178  0.93036319     1.20200
Mn921      Mn  0.00016567  0.56579002  0.50069770     1.10100
Cl922      Cl  0.00138616  0.49803066  0.50070978    -0.86800
C923        C  0.41944561  0.58084656  0.92352251     0.95500
C924        C  0.07468299  0.57898679  0.91533200     0.95300
C925        C  0.17201431  0.66528394  0.82722814    -0.03400
C926        C  0.16771956  0.82376064  0.82378411    -0.03400
C927        C  0.18714379  0.83185089  0.66065855    -0.03400
C928        C  0.17646077  0.67551492  0.66100391    -0.03400
C929        C  0.32208976  0.66808727  0.83286011    -0.03400
C930        C  0.33440093  0.67645268  0.66864489    -0.03400
C931        C  0.34350740  0.82920641  0.67814107    -0.03400
C932        C  0.32104388  0.83076900  0.83771620    -0.03400
C933        C  0.35035678  0.83269735  0.72036438    -0.07000
C934        C  0.33940585  0.86452747  0.73858980    -0.18100
C935        C  0.33884114  0.86711257  0.77692721     0.10200
C936        C  0.33682739  0.83525599  0.79762320    -0.06900
C937        C  0.35507025  0.80657773  0.78076198    -0.18200
C938        C  0.36495158  0.80647221  0.74390881     0.10200
S939        S  0.35587427  0.90819296  0.79489470    -0.33100
S940        S  0.40533547  0.78322301  0.73458800    -0.33100
H941        H  0.41930880  0.78640813  0.76961902     0.28200
H942        H  0.33613412  0.90986001  0.82677448     0.28200
H943        H  0.33438073  0.88828767  0.72281190     0.18800
H944        H  0.36481930  0.78531629  0.79726488     0.18800
C945        C  0.34463773  0.71490635  0.65456103    -0.07000
C946        C  0.37716978  0.73053197  0.66098917    -0.18100
C947        C  0.38029736  0.76821095  0.66127592     0.10200
C948        C  0.34925055  0.78984489  0.66170085    -0.06900
C949        C  0.32320291  0.77436066  0.64004261    -0.18200
C950        C  0.32211279  0.73747534  0.63414165     0.10200
S951        S  0.42263367  0.78473657  0.64860543    -0.33100
S952        S  0.29583446  0.72117299  0.59751865    -0.33100
H953        H  0.28051865  0.75394013  0.58762608     0.28200
H954        H  0.42135502  0.81535624  0.66988586     0.28200
H955        H  0.39971182  0.71391005  0.66654052     0.18800
H956        H  0.30394126  0.79089307  0.62694738     0.18800
C957        C  0.33158690  0.66643146  0.79028271    -0.07000
C958        C  0.32174022  0.63821477  0.76696497    -0.18100
C959        C  0.32571854  0.63930594  0.72864378     0.10200
C960        C  0.33826280  0.67048868  0.71113340    -0.06900
C961        C  0.35315241  0.69588514  0.73458738    -0.18200
C962        C  0.35281105  0.69248675  0.77255307     0.10200
S963        S  0.31598927  0.59964155  0.70275273    -0.33100
S964        S  0.38619755  0.71780271  0.79471652    -0.33100
H965        H  0.39072361  0.69659181  0.82528319     0.28200
H966        H  0.30903519  0.57686622  0.73203793     0.28200
H967        H  0.31358124  0.61367919  0.77811097     0.18800
H968        H  0.36615518  0.71863341  0.72412016     0.18800
C969        C  0.31974076  0.71003168  0.84068446    -0.07000
C970        C  0.34138715  0.72854434  0.86528566    -0.18100
C971        C  0.33976271  0.76659009  0.86993509     0.10200
C972        C  0.32016540  0.78835774  0.84520471    -0.06900
C973        C  0.29731768  0.76926678  0.82305032    -0.18200
C974        C  0.29524913  0.73223186  0.82190172     0.10200
S975        S  0.35886274  0.78469269  0.91043556    -0.33100
S976        S  0.25788918  0.71732890  0.79713664    -0.33100
H977        H  0.26924481  0.68391032  0.78589020     0.28200
H978        H  0.36870930  0.75216028  0.92638836     0.28200
H979        H  0.35907307  0.71303579  0.88173498     0.18800
H980        H  0.27953794  0.78394818  0.80617557     0.18800
C981        C  0.29350823  0.67277429  0.66308628    -0.07000
C982        C  0.27659765  0.64696746  0.64113797    -0.18100
C983        C  0.23972895  0.64727781  0.63567192     0.10200
C984        C  0.21765386  0.67181283  0.65585894    -0.06900
C985        C  0.23534026  0.69652126  0.67756192    -0.18200
C986        C  0.27085475  0.69760150  0.68074790     0.10200
S987        S  0.22440454  0.61398607  0.60466978    -0.33100
S988        S  0.28490264  0.73224980  0.70955752    -0.33100
H989        H  0.28783229  0.70709106  0.73617027     0.28200
H990        H  0.19961864  0.63586807  0.58801583     0.28200
H991        H  0.29154856  0.62582071  0.62819571     0.18800
H992        H  0.22048523  0.71554881  0.69403296     0.18800
C993        C  0.17518595  0.79266199  0.65067022    -0.07000
C994        C  0.19449916  0.77138640  0.62590024    -0.18100
C995        C  0.18978806  0.73445947  0.62377879     0.10200
C996        C  0.17009930  0.71643856  0.65155875    -0.06900
C997        C  0.14629355  0.73855001  0.67098117    -0.18200
C998        C  0.14591687  0.77569009  0.66719711     0.10200
S999        S  0.20923338  0.71277268  0.58456449    -0.33100
S1000       S  0.10835981  0.79889651  0.68631737    -0.33100
H1001       H  0.10889731  0.82718555  0.66180360     0.28200
H1002       H  0.18039896  0.69192165  0.57697408     0.28200
H1003       H  0.21324090  0.78366391  0.60787728     0.18800
H1004       H  0.12578131  0.72767351  0.68702788     0.18800
C1005       C  0.22898600  0.83364425  0.65655302    -0.07000
C1006       C  0.24850134  0.80753402  0.67444921    -0.18100
C1007       C  0.27890941  0.81589725  0.69173772     0.10200
C1008       C  0.30274529  0.83851512  0.67444215    -0.06900
C1009       C  0.28724694  0.86138227  0.64797158    -0.18200
C1010       C  0.25094505  0.85921762  0.63886477     0.10200
S1011       S  0.27348298  0.81546528  0.73984459    -0.33100
S1012       S  0.23864028  0.88164463  0.59783582    -0.33100
H1013       H  0.21988380  0.85258587  0.58448688     0.28200
H1014       H  0.29943141  0.78991286  0.74526388     0.28200
H1015       H  0.23918174  0.78125966  0.67862455     0.18800
H1016       H  0.30300775  0.87995565  0.63307544     0.18800
C1017       C  0.17843031  0.83505176  0.70364742    -0.07000
C1018       C  0.18882749  0.80503731  0.72449738    -0.18100
C1019       C  0.17623650  0.79785453  0.75875432     0.10200
C1020       C  0.16411218  0.82569739  0.78118001    -0.06900
C1021       C  0.15508105  0.85761738  0.76266319    -0.18200
C1022       C  0.15692816  0.86018123  0.72413008     0.10200
S1023       S  0.15989436  0.75351949  0.76237567    -0.33100
S1024       S  0.12537749  0.89045441  0.70476135    -0.33100
H1025       H  0.10468143  0.89615388  0.73614636     0.28200
H1026       H  0.19094785  0.73652049  0.75047784     0.28200
H1027       H  0.19853692  0.78149311  0.71162434     0.18800
H1028       H  0.14475645  0.88013164  0.77799588     0.18800
C1029       C  0.20667915  0.83483612  0.83312495    -0.07000
C1030       C  0.22684529  0.85369242  0.80773210    -0.18100
C1031       C  0.26198246  0.86122592  0.81291763     0.10200
C1032       C  0.28119484  0.84296771  0.84019798    -0.06900
C1033       C  0.26044651  0.82891788  0.86858666    -0.18200
C1034       C  0.22384269  0.82796640  0.86701810     0.10200
S1035       S  0.27288595  0.90472518  0.79661926    -0.33100
S1036       S  0.20235655  0.82080157  0.91035353    -0.33100
H1037       H  0.16863908  0.81506042  0.89855142     0.28200
H1038       H  0.25728193  0.90084305  0.76244058     0.28200
H1039       H  0.21457781  0.86666815  0.78526974     0.18800
H1040       H  0.27317669  0.81851037  0.89248255     0.18800
C1041       C  0.16816071  0.66548792  0.78371744    -0.07000
C1042       C  0.19771467  0.65701306  0.76222827    -0.18100
C1043       C  0.19641967  0.64974829  0.72525066     0.10200
C1044       C  0.17023304  0.66598771  0.70346894    -0.06900
C1045       C  0.13908463  0.67308209  0.72326267    -0.18200
C1046       C  0.13729702  0.67306355  0.76223100     0.10200
S1047       S  0.22411185  0.61307090  0.70958363    -0.33100
S1048       S  0.09452108  0.68521469  0.77965091    -0.33100
H1049       H  0.09384545  0.66432715  0.81061356     0.28200
H1050       H  0.24286746  0.60740963  0.74163610     0.28200
H1051       H  0.22274649  0.65364500  0.77337217     0.18800
H1052       H  0.11536533  0.67771850  0.70841669     0.18800
C1053       C  0.21013745  0.65103770  0.84030630    -0.07000
C1054       C  0.22604606  0.66469677  0.87125140    -0.18100
C1055       C  0.26203998  0.67076413  0.87193457     0.10200
C1056       C  0.28395188  0.65457805  0.84402545    -0.06900
C1057       C  0.26813606  0.62411432  0.82870918    -0.18200
C1058       C  0.23104769  0.62177980  0.82702960     0.10200
S1059       S  0.27516968  0.69803407  0.91029952    -0.33100
S1060       S  0.21210854  0.58059813  0.81305669    -0.33100
H1061       H  0.24319562  0.56374693  0.80107253     0.28200
H1062       H  0.31074333  0.69146973  0.91240741     0.28200
H1063       H  0.21058996  0.67065341  0.89488351     0.18800
H1064       H  0.28387515  0.60119216  0.82147958     0.18800
C1065       C  0.16355802  0.78339524  0.83679244    -0.07000
C1066       C  0.19407871  0.76154133  0.83555532    -0.18100
C1067       C  0.19352002  0.72812607  0.85116451     0.10200
C1068       C  0.16626570  0.70627343  0.83969634    -0.06900
C1069       C  0.13376258  0.72490681  0.84243700    -0.18200
C1070       C  0.13238049  0.76319656  0.84500293     0.10200
S1071       S  0.19461825  0.73505297  0.89988009    -0.33100
S1072       S  0.09335629  0.78082262  0.86621844    -0.33100
H1073       H  0.11084325  0.80414809  0.88934725     0.28200
H1074       H  0.22686349  0.75222819  0.89806519     0.28200
H1075       H  0.21899972  0.77123524  0.82689166     0.18800
H1076       H  0.11016640  0.71015733  0.84624438     0.18800
C1077       C  0.14564687  0.64070559  0.84763710    -0.03000
C1078       C  0.14102057  0.64785156  0.88520876    -0.18100
C1079       C  0.11947004  0.62797290  0.90803711     0.10200
C1080       C  0.10058284  0.59941810  0.89355700    -0.06900
C1081       C  0.10512978  0.59111563  0.85667988    -0.18200
C1082       C  0.12719082  0.61044988  0.83355388     0.10200
S1083       S  0.11809105  0.63915216  0.95594039    -0.33100
S1084       S  0.12500387  0.59495320  0.78688320    -0.33100
H1085       H  0.15888959  0.60019221  0.77503187     0.28200
H1086       H  0.13224569  0.67338193  0.95313257     0.28200
H1087       H  0.15415277  0.66990772  0.89733278     0.18800
H1088       H  0.09055045  0.56931910  0.84530103     0.18800
C1089       C  0.11865352  0.89989004  0.59148860    -0.07000
C1090       C  0.14133799  0.91648893  0.61603134    -0.18100
C1091       C  0.16609664  0.89684713  0.63663623     0.10200
C1092       C  0.16704626  0.85860414  0.63455906    -0.06900
C1093       C  0.14808658  0.84400807  0.60511998    -0.18200
C1094       C  0.12351233  0.86307207  0.58521786     0.10200
S1095       S  0.19398187  0.92339688  0.66521893    -0.33100
S1096       S  0.09799031  0.83814868  0.55300797    -0.33100
H1097       H  0.10266907  0.80428462  0.56862267     0.28200
H1098       H  0.20860260  0.89612378  0.68599496     0.28200
H1099       H  0.13940788  0.94511447  0.61973459     0.18800
H1100       H  0.15128493  0.81662655  0.59702122     0.18800
C1101       C  0.35863299  0.64932265  0.64725168    -0.07000
C1102       C  0.35229591  0.64331752  0.61012004    -0.18100
C1103       C  0.37113596  0.61797556  0.58951330     0.10200
C1104       C  0.39952840  0.59947335  0.60467465    -0.06900
C1105       C  0.40802304  0.60673245  0.64056527    -0.18200
C1106       C  0.38937690  0.63214949  0.66150150     0.10200
S1107       S  0.35644531  0.60945232  0.54438516    -0.33100
S1108       S  0.41100569  0.64560427  0.70252731    -0.33100
H1109       H  0.42754333  0.61265184  0.70949042     0.28200
H1110       H  0.36710337  0.57342269  0.54327790     0.28200
H1111       H  0.33165847  0.65775031  0.59682988     0.18800
H1112       H  0.43144974  0.59452032  0.65132054     0.18800
C1113       C  0.10739799  0.60245029  0.59888716    -0.07000
C1114       C  0.10533502  0.63900994  0.59308294    -0.18100
C1115       C  0.12563473  0.66355905  0.61188345     0.10200
C1116       C  0.15160672  0.65137153  0.63752711    -0.06900
C1117       C  0.15247380  0.61409262  0.64369335    -0.18200
C1118       C  0.13135167  0.58978522  0.62476542     0.10200
S1119       S  0.11286530  0.70921771  0.60207735    -0.33100
S1120       S  0.13639918  0.54260467  0.63303560    -0.33100
H1121       H  0.16147859  0.54505971  0.66041177     0.28200
H1122       H  0.10585763  0.70399484  0.56500055     0.28200
H1123       H  0.08586291  0.64894336  0.57449527     0.18800
H1124       H  0.17037110  0.60360374  0.66329831     0.18800
C1125       C  0.34542480  0.85194816  0.86407578    -0.07000
C1126       C  0.38170605  0.84444927  0.86055266    -0.18100
C1127       C  0.40706754  0.86345981  0.87930314     0.10200
C1128       C  0.39688069  0.89145828  0.90287735    -0.06900
C1129       C  0.36150961  0.89920696  0.90757613    -0.18200
C1130       C  0.33558872  0.88056282  0.88885104     0.10200
S1131       S  0.45202681  0.85017966  0.87182116    -0.33100
S1132       S  0.29160667  0.89754087  0.89633243    -0.33100
H1133       H  0.29875900  0.92760762  0.91775178     0.28200
H1134       H  0.46722071  0.88280059  0.88073562     0.28200
H1135       H  0.39070577  0.82315389  0.84270707     0.18800
H1136       H  0.35431543  0.92076433  0.92597699     0.18800
C1137       C  0.39524375  0.60293316  0.90158985    -0.07000
C1138       C  0.40502811  0.61113954  0.86616278    -0.18100
C1139       C  0.38287042  0.62987018  0.84246241     0.10200
C1140       C  0.34977557  0.64480860  0.85541907    -0.06900
C1141       C  0.34005867  0.63311819  0.89084882    -0.18200
C1142       C  0.36171072  0.61281968  0.91338959     0.10200
S1143       S  0.39834050  0.62766649  0.79594607    -0.33100
S1144       S  0.34328737  0.59721771  0.95544132    -0.33100
H1145       H  0.36167838  0.56453585  0.95604380     0.28200
H1146       H  0.43404139  0.63054877  0.80349070     0.28200
H1147       H  0.42995141  0.60085945  0.85625151     0.18800
H1148       H  0.31394615  0.63645567  0.90093641     0.18800
C1149       C  0.09707713  0.89705360  0.88434765    -0.07000
C1150       C  0.08360856  0.87716425  0.85571945    -0.18100
C1151       C  0.10507044  0.85461923  0.83420929     0.10200
C1152       C  0.14156269  0.85117436  0.84228887    -0.06900
C1153       C  0.15446521  0.87684043  0.86720113    -0.18200
C1154       C  0.13294340  0.89786299  0.88926382     0.10200
S1155       S  0.08289631  0.83377082  0.79652535    -0.33100
S1156       S  0.15318443  0.92454053  0.92391364    -0.33100
H1157       H  0.12806780  0.95218255  0.92495948     0.28200
H1158       H  0.10327419  0.80276551  0.79313756     0.28200
H1159       H  0.05587612  0.87859749  0.85059334     0.18800
H1160       H  0.18176080  0.88104325  0.87113076     0.18800
C1161       C  0.40572049  0.89859560  0.60641821    -0.07000
C1162       C  0.41076190  0.90032879  0.64380199    -0.18100
C1163       C  0.39318289  0.87826690  0.66813483     0.10200
C1164       C  0.36660092  0.85488995  0.65501465    -0.06900
C1165       C  0.36233497  0.85349849  0.61681302    -0.18200
C1166       C  0.38118078  0.87475720  0.59275400     0.10200
S1167       S  0.41256149  0.87716007  0.71276224    -0.33100
S1168       S  0.37205454  0.87048925  0.54503456    -0.33100
H1169       H  0.37621251  0.90683543  0.53727973     0.28200
H1170       H  0.42172949  0.91330376  0.71409617     0.28200
H1171       H  0.43117375  0.91717629  0.65392296     0.18800
H1172       H  0.34360684  0.83564301  0.60521690     0.18800
N1173       N  0.96855512  0.45662793  0.07180680    -0.07000
N1174       N  0.94511106  0.45004846  0.09729413    -0.59100
N1175       N  0.54712987  0.43240411  0.03953702    -0.06700
N1176       N  0.57312715  0.40922817  0.04291343    -0.61200
N1177       N  0.54852014  0.45667944  0.06541153    -0.06300
N1178       N  0.57555392  0.45022940  0.08670664    -0.59100
N1179       N  0.96802376  0.43179849  0.04648236    -0.05900
N1180       N  0.94424549  0.40790695  0.05422703    -0.61600
C1181       C  0.92979025  0.41980656  0.08578131     0.95200
C1182       C  0.59092740  0.42036099  0.07237054     0.95000
N1183       N  0.53845034  0.45500939  0.42615867    -0.07200
N1184       N  0.55810465  0.44696707  0.39759192    -0.59700
N1185       N  0.96088026  0.42920407  0.46011788    -0.05300
N1186       N  0.93933279  0.40286666  0.45328857    -0.60900
N1187       N  0.95814612  0.45405073  0.43506553    -0.07200
N1188       N  0.93458355  0.44501066  0.41087233    -0.60000
N1189       N  0.54147511  0.43039192  0.45130385    -0.04900
N1190       N  0.56344704  0.40501286  0.44026696    -0.61000
Mn1191     Mn  0.00334076  0.43021221  0.50064623     1.18400
C1192       C  0.57362032  0.41599208  0.40692381     0.97300
C1193       C  0.92288868  0.41318546  0.42271079     0.97900
N1194       N  0.54526141  0.04047449  0.06579405    -0.07200
N1195       N  0.56984323  0.04799626  0.08940841    -0.63500
N1196       N  0.96319962  0.06421463  0.04529216    -0.06000
N1197       N  0.93809050  0.08768560  0.05221504    -0.64200
N1198       N  0.96494648  0.04014348  0.07102631    -0.06700
N1199       N  0.94101720  0.04710716  0.09633849    -0.63800
N1200       N  0.54342493  0.06499115  0.04050410    -0.05600
N1201       N  0.56687744  0.08967314  0.04658889    -0.64500
Mn1202     Mn  0.50641047  0.99830116  0.06892194     1.10700
C1203       C  0.58357392  0.07866008  0.07699004     0.98500
C1204       C  0.92408990  0.07652223  0.08383194     0.98600
N1205       N  0.95656021  0.03940158  0.43541753    -0.06700
N1206       N  0.93261423  0.04725351  0.41121848    -0.62100
N1207       N  0.53727065  0.06613767  0.45409971    -0.06100
N1208       N  0.56075916  0.09014116  0.44623471    -0.58800
N1209       N  0.53605901  0.04189427  0.42824103    -0.07400
N1210       N  0.55899800  0.04899868  0.40233227    -0.61700
N1211       N  0.95776606  0.06453827  0.46042806    -0.06400
N1212       N  0.93427489  0.08983290  0.45384229    -0.58900
Mn1213     Mn  0.99709564  0.49734428  0.43142360     1.20200
Mn1214     Mn  0.50086597  0.06511978  0.99951078     1.10100
Cl1215     Cl  0.50196241  0.99734758  0.99953690    -0.86800
C1216       C  0.91850268  0.07840813  0.42330677     0.95500
C1217       C  0.57448721  0.07911237  0.41407582     0.95300
C1218       C  0.67208260  0.16450770  0.32645450    -0.03400
C1219       C  0.66848797  0.32242795  0.32327592    -0.03400
C1220       C  0.68755725  0.33045456  0.15953279    -0.03400
C1221       C  0.67709790  0.17436835  0.16011404    -0.03400
C1222       C  0.82152429  0.16628739  0.33349541    -0.03400
C1223       C  0.83461551  0.17520522  0.16943286    -0.03400
C1224       C  0.84388279  0.32774650  0.17916725    -0.03400
C1225       C  0.82138869  0.32910573  0.33884927    -0.03400
C1226       C  0.85039361  0.33093482  0.22145851    -0.07000
C1227       C  0.83908325  0.36259509  0.23971565    -0.18100
C1228       C  0.83878598  0.36521288  0.27800368     0.10200
C1229       C  0.83693418  0.33338709  0.29871364    -0.06900
C1230       C  0.85491560  0.30461602  0.28179921    -0.18200
C1231       C  0.86494721  0.30463518  0.24501303     0.10200
S1232       S  0.85625070  0.40618923  0.29573125    -0.33100
S1233       S  0.90550795  0.28157466  0.23611216    -0.33100
H1234       H  0.91918421  0.28473318  0.27128139     0.28200
H1235       H  0.83656373  0.40824451  0.32763306     0.28200
H1236       H  0.83384935  0.38633500  0.22397846     0.18800
H1237       H  0.86456851  0.28329536  0.29828037     0.18800
C1238       C  0.84503988  0.21365205  0.15552931    -0.07000
C1239       C  0.87761943  0.22911841  0.16221456    -0.18100
C1240       C  0.88090058  0.26678850  0.16257591     0.10200
C1241       C  0.84992144  0.28850675  0.16260932    -0.06900
C1242       C  0.82407744  0.27314577  0.14065744    -0.18200
C1243       C  0.82272835  0.23630259  0.13492836     0.10200
S1244       S  0.92359095  0.28329883  0.15118430    -0.33100
S1245       S  0.79626041  0.22027262  0.09831308    -0.33100
H1246       H  0.77937135  0.25270890  0.09010739     0.28200
H1247       H  0.92114554  0.31474530  0.17115899     0.28200
H1248       H  0.90001853  0.21238640  0.16805985     0.18800
H1249       H  0.80512708  0.28979316  0.12724376     0.18800
C1250       C  0.83108070  0.16478758  0.29095484    -0.07000
C1251       C  0.82143490  0.13657652  0.26750703    -0.18100
C1252       C  0.82563025  0.13777116  0.22921737     0.10200
C1253       C  0.83818079  0.16906641  0.21190786    -0.06900
C1254       C  0.85287359  0.19442249  0.23552038    -0.18200
C1255       C  0.85238620  0.19087933  0.27344311     0.10200
S1256       S  0.81638542  0.09806119  0.20315430    -0.33100
S1257       S  0.88593384  0.21582038  0.29577529    -0.33100
H1258       H  0.89037252  0.19437225  0.32618246     0.28200
H1259       H  0.80908275  0.07525240  0.23232219     0.28200
H1260       H  0.81347601  0.11191758  0.27854112     0.18800
H1261       H  0.86587293  0.21724109  0.22521314     0.18800
C1262       C  0.81933958  0.20823547  0.34163315    -0.07000
C1263       C  0.84127273  0.22651713  0.36612719    -0.18100
C1264       C  0.84042299  0.26463457  0.37050664     0.10200
C1265       C  0.82024468  0.28666968  0.34647015    -0.06900
C1266       C  0.79708588  0.26775260  0.32449517    -0.18200
C1267       C  0.79494145  0.23070740  0.32305526     0.10200
S1268       S  0.86180690  0.28248562  0.40976727    -0.33100
S1269       S  0.75774074  0.21613276  0.29790769    -0.33100
H1270       H  0.76898169  0.18268031  0.28677519     0.28200
H1271       H  0.88319196  0.25259506  0.41677894     0.28200
H1272       H  0.85874185  0.21074590  0.38256702     0.18800
H1273       H  0.77941070  0.28258492  0.30759849     0.18800
C1274       C  0.79390292  0.17147319  0.16340732    -0.07000
C1275       C  0.77731987  0.14576546  0.14107410    -0.18100
C1276       C  0.74050991  0.14604563  0.13523447     0.10200
C1277       C  0.71827500  0.17066309  0.15514840    -0.06900
C1278       C  0.73573755  0.19545542  0.17691891    -0.18200
C1279       C  0.77113104  0.19629216  0.18080087     0.10200
S1280       S  0.72546001  0.11267658  0.10415971    -0.33100
S1281       S  0.78485284  0.23049212  0.21028637    -0.33100
H1282       H  0.78689461  0.20480799  0.23651551     0.28200
H1283       H  0.70065434  0.13444688  0.08738864     0.28200
H1284       H  0.79252111  0.12481535  0.12807801     0.18800
H1285       H  0.72075081  0.21457379  0.19312580     0.18800
C1286       C  0.67548341  0.29146671  0.14895993    -0.07000
C1287       C  0.69515173  0.27008456  0.12458189    -0.18100
C1288       C  0.69049968  0.23312885  0.12262970     0.10200
C1289       C  0.67075012  0.21524387  0.15047159    -0.06900
C1290       C  0.64680792  0.23742002  0.16965730    -0.18200
C1291       C  0.64615917  0.27449006  0.16529841     0.10200
S1292       S  0.71005977  0.21122738  0.08358180    -0.33100
S1293       S  0.60830676  0.29775679  0.18356497    -0.33100
H1294       H  0.60919756  0.32566388  0.15856853     0.28200
H1295       H  0.68118564  0.19047256  0.07587217     0.28200
H1296       H  0.71409852  0.28229428  0.10674606     0.18800
H1297       H  0.62632034  0.22663359  0.18579574     0.18800
C1298       C  0.72950912  0.33205526  0.15606358    -0.07000
C1299       C  0.74882464  0.30586319  0.17418142    -0.18100
C1300       C  0.77906050  0.31416265  0.19195437     0.10200
C1301       C  0.80309424  0.33689411  0.17506494    -0.06900
C1302       C  0.78789355  0.35978834  0.14843050    -0.18200
C1303       C  0.75169767  0.35771836  0.13887976     0.10200
S1304       S  0.77323901  0.31335019  0.24007373    -0.33100
S1305       S  0.73976659  0.38063085  0.09803255    -0.33100
H1306       H  0.72174819  0.35143974  0.08386605     0.28200
H1307       H  0.79949105  0.28820645  0.24581569     0.28200
H1308       H  0.73954495  0.27952784  0.17799736     0.18800
H1309       H  0.80382468  0.37838390  0.13377255     0.18800
C1310       C  0.67848318  0.33327734  0.20253277    -0.07000
C1311       C  0.68879167  0.30314009  0.22310713    -0.18100
C1312       C  0.67767515  0.29620593  0.25798128     0.10200
C1313       C  0.66517183  0.32394926  0.28049233    -0.06900
C1314       C  0.65551304  0.35565561  0.26182884    -0.18200
C1315       C  0.65705216  0.35822873  0.22323113     0.10200
S1316       S  0.66507585  0.25081784  0.26326752    -0.33100
S1317       S  0.62510412  0.38809978  0.20388992    -0.33100
H1318       H  0.60549882  0.39526987  0.23572284     0.28200
H1319       H  0.69688536  0.23597085  0.25068263     0.28200
H1320       H  0.69805701  0.27964976  0.20984602     0.18800
H1321       H  0.64491146  0.37804436  0.27713049     0.18800
C1322       C  0.70728609  0.33362762  0.33295524    -0.07000
C1323       C  0.72781812  0.35192223  0.30748337    -0.18100
C1324       C  0.76279128  0.35975342  0.31331443     0.10200
C1325       C  0.78163904  0.34178412  0.34108536    -0.06900
C1326       C  0.76051138  0.32810516  0.36933140    -0.18200
C1327       C  0.72391572  0.32744798  0.36728879     0.10200
S1328       S  0.77320654  0.40369091  0.29790901    -0.33100
S1329       S  0.70182956  0.32027940  0.41025344    -0.33100
H1330       H  0.66803320  0.31626521  0.39812774     0.28200
H1331       H  0.75894095  0.39955301  0.26310984     0.28200
H1332       H  0.71584962  0.36442459  0.28452691     0.18800
H1333       H  0.77291072  0.31772280  0.39342720     0.18800
C1334       C  0.66843051  0.16474686  0.28290308    -0.07000
C1335       C  0.69804527  0.15615191  0.26155995    -0.18100
C1336       C  0.69690013  0.14881475  0.22456996     0.10200
C1337       C  0.67075585  0.16494263  0.20261219    -0.06900
C1338       C  0.63958854  0.17220444  0.22228504    -0.18200
C1339       C  0.63769265  0.17240644  0.26124262     0.10200
S1340       S  0.72467780  0.11211495  0.20913469    -0.33100
S1341       S  0.59502842  0.18516958  0.27843398    -0.33100
H1342       H  0.59370035  0.16353926  0.30886545     0.28200
H1343       H  0.74448920  0.10775894  0.24069247     0.28200
H1344       H  0.72298259  0.15273234  0.27289253     0.18800
H1345       H  0.61592041  0.17680654  0.20734770     0.18800
C1346       C  0.70982626  0.14974096  0.33981941    -0.07000
C1347       C  0.72540824  0.16288443  0.37117810    -0.18100
C1348       C  0.76138634  0.16876815  0.37228824     0.10200
C1349       C  0.78341264  0.15273647  0.34441895    -0.06900
C1350       C  0.76765067  0.12246335  0.32869296    -0.18200
C1351       C  0.73062043  0.12045179  0.32643418     0.10200
S1352       S  0.77432699  0.19566431  0.41097543    -0.33100
S1353       S  0.71161967  0.07966161  0.31138178    -0.33100
H1354       H  0.74268835  0.06308463  0.29894550     0.28200
H1355       H  0.80996760  0.18939169  0.41281532     0.28200
H1356       H  0.70971839  0.16881596  0.39464468     0.18800
H1357       H  0.78332513  0.09947410  0.32153571     0.18800
C1358       C  0.66417879  0.28235424  0.33707555    -0.07000
C1359       C  0.69477745  0.26055439  0.33738625    -0.18100
C1360       C  0.69354955  0.22688497  0.35228924     0.10200
C1361       C  0.66657090  0.20542793  0.33922809    -0.06900
C1362       C  0.63410942  0.22408503  0.34145006    -0.18200
C1363       C  0.63280777  0.26224866  0.34450706     0.10200
S1364       S  0.69329367  0.23310113  0.40119184    -0.33100
S1365       S  0.59420185  0.27930996  0.36709455    -0.33100
H1366       H  0.61182259  0.30301455  0.38964636     0.28200
H1367       H  0.72545806  0.25049811  0.40087941     0.28200
H1368       H  0.72001010  0.27000796  0.32954989     0.18800
H1369       H  0.61045564  0.20935304  0.34488581     0.18800
C1370       C  0.64543105  0.14030224  0.34663257    -0.03000
C1371       C  0.64030922  0.14798936  0.38403222    -0.18100
C1372       C  0.61843218  0.12860643  0.40678987     0.10200
C1373       C  0.60026057  0.09952389  0.39246195    -0.06900
C1374       C  0.60535816  0.09058308  0.35581051    -0.18200
C1375       C  0.62726460  0.10988387  0.33261780     0.10200
S1376       S  0.61510186  0.14161601  0.45422582    -0.33100
S1377       S  0.62483476  0.09435735  0.28595379    -0.33100
H1378       H  0.65850967  0.09981119  0.27359944     0.28200
H1379       H  0.63557187  0.17232099  0.45265839     0.28200
H1380       H  0.65308362  0.17028613  0.39601197     0.18800
H1381       H  0.59116103  0.06844042  0.34458796     0.18800
C1382       C  0.62025296  0.39952421  0.08978208    -0.07000
C1383       C  0.64193688  0.41562098  0.11566425    -0.18100
C1384       C  0.66657276  0.39574584  0.13623201     0.10200
C1385       C  0.66790449  0.35758298  0.13334323    -0.06900
C1386       C  0.65015966  0.34356166  0.10274186    -0.18200
C1387       C  0.62646020  0.36311311  0.08195575     0.10200
S1388       S  0.69397167  0.42189110  0.16568604    -0.33100
S1389       S  0.60418556  0.33970248  0.04603994    -0.33100
H1390       H  0.61288478  0.30461134  0.05614948     0.28200
H1391       H  0.70902840  0.39429178  0.18566763     0.28200
H1392       H  0.63942261  0.44407569  0.12033728     0.18800
H1393       H  0.65408649  0.31639836  0.09422747     0.18800
C1394       C  0.85875212  0.14823788  0.14805290    -0.07000
C1395       C  0.85321929  0.14353169  0.11057865    -0.18100
C1396       C  0.87236674  0.11886101  0.08957266     0.10200
C1397       C  0.89918230  0.09852264  0.10546736    -0.06900
C1398       C  0.90669292  0.10423570  0.14189214    -0.18200
C1399       C  0.88871525  0.13010627  0.16268934     0.10200
S1400       S  0.86095306  0.11464380  0.04258549    -0.33100
S1401       S  0.91059401  0.14333495  0.20368966    -0.33100
H1402       H  0.92798198  0.11073766  0.21014823     0.28200
H1403       H  0.86926436  0.07808168  0.03977473     0.28200
H1404       H  0.83321740  0.15875655  0.09721524     0.18800
H1405       H  0.92931842  0.09085623  0.15306488     0.18800
C1406       C  0.60852597  0.10137010  0.09750003    -0.07000
C1407       C  0.60648331  0.13790962  0.09171173    -0.18100
C1408       C  0.62654770  0.16243041  0.11075630     0.10200
C1409       C  0.65237582  0.15022918  0.13655188    -0.06900
C1410       C  0.65323181  0.11296268  0.14272071    -0.18200
C1411       C  0.63224523  0.08867300  0.12361635     0.10200
S1412       S  0.61354335  0.20803445  0.10102321    -0.33100
S1413       S  0.63697837  0.04151604  0.13221092    -0.33100
H1414       H  0.66415495  0.04374846  0.15733981     0.28200
H1415       H  0.60755373  0.20295932  0.06371536     0.28200
H1416       H  0.58715529  0.14786883  0.07297441     0.18800
H1417       H  0.67092219  0.10249571  0.16255217     0.18800
C1418       C  0.84600106  0.35042569  0.36497061    -0.07000
C1419       C  0.88238296  0.34362625  0.36081154    -0.18100
C1420       C  0.90772188  0.36336972  0.37891740     0.10200
C1421       C  0.89749820  0.39104751  0.40288130    -0.06900
C1422       C  0.86205991  0.39805035  0.40819870    -0.18200
C1423       C  0.83624308  0.37904409  0.38972992     0.10200
S1424       S  0.95282853  0.35176810  0.37011113    -0.33100
S1425       S  0.79244151  0.39566164  0.39820065    -0.33100
H1426       H  0.80117642  0.43152793  0.40391279     0.28200
H1427       H  0.96579822  0.38633971  0.37412795     0.28200
H1428       H  0.89148688  0.32253710  0.34276080     0.18800
H1429       H  0.85446586  0.41923258  0.42694635     0.18800
C1430       C  0.89419588  0.10028781  0.40155502    -0.07000
C1431       C  0.90404132  0.10869656  0.36624945    -0.18100
C1432       C  0.88200208  0.12768038  0.34275663     0.10200
C1433       C  0.84900594  0.14269093  0.35586897    -0.06900
C1434       C  0.83922093  0.13083503  0.39124047    -0.18200
C1435       C  0.86081176  0.11033949  0.41363503     0.10200
S1436       S  0.89760250  0.12567174  0.29629881    -0.33100
S1437       S  0.84268236  0.09518516  0.45607133    -0.33100
H1438       H  0.86194723  0.06309051  0.45783261     0.28200
H1439       H  0.93318028  0.12938766  0.30403819     0.28200
H1440       H  0.92896463  0.09845991  0.35627292     0.18800
H1441       H  0.81316489  0.13433026  0.40143468     0.18800
C1442       C  0.59731023  0.39590580  0.38282127    -0.07000
C1443       C  0.58376436  0.37422055  0.35562656    -0.18100
C1444       C  0.60549720  0.35220104  0.33385145     0.10200
C1445       C  0.64217555  0.35005281  0.34119070    -0.06900
C1446       C  0.65496271  0.37720811  0.36452204    -0.18200
C1447       C  0.63329074  0.39897407  0.38577192     0.10200
S1448       S  0.58341043  0.33045645  0.29662167    -0.33100
S1449       S  0.65350699  0.42969070  0.41674124    -0.33100
H1450       H  0.62685854  0.45578572  0.41689175     0.28200
H1451       H  0.60484054  0.30029599  0.29240388     0.28200
H1452       H  0.55585507  0.37424218  0.35148893     0.18800
H1453       H  0.68227884  0.38212921  0.36763090     0.18800
C1454       C  0.90561473  0.39889359  0.10858394    -0.07000
C1455       C  0.90947141  0.40115739  0.14612257    -0.18100
C1456       C  0.89249685  0.37813576  0.17002926     0.10200
C1457       C  0.86693747  0.35385638  0.15642129    -0.06900
C1458       C  0.86349758  0.35227454  0.11814562    -0.18200
C1459       C  0.88230813  0.37395429  0.09445142     0.10200
S1460       S  0.91183303  0.37691895  0.21463749    -0.33100
S1461       S  0.87487130  0.36850711  0.04650592    -0.33100
H1462       H  0.87742695  0.40496061  0.03842287     0.28200
H1463       H  0.91861066  0.41360900  0.21699298     0.28200
H1464       H  0.92891455  0.41888859  0.15674107     0.18800
H1465       H  0.84554573  0.33383752  0.10616453     0.18800
N1466       N  0.96625568  0.45637470  0.57159382    -0.07000
N1467       N  0.94325570  0.44996465  0.59755543    -0.59100
N1468       N  0.54745222  0.43179156  0.53850035    -0.06700
N1469       N  0.57278728  0.40820885  0.54370247    -0.61200
N1470       N  0.54760334  0.45613281  0.56441064    -0.06300
N1471       N  0.57300414  0.44930013  0.58762029    -0.59100
N1472       N  0.96564659  0.43119070  0.54660012    -0.05900
N1473       N  0.94211528  0.40718547  0.55517370    -0.61600
C1474       C  0.92799821  0.41946339  0.58684956     0.95200
C1475       C  0.58867880  0.41915168  0.57444321     0.95000
N1476       N  0.53573520  0.45567378  0.92784479    -0.07200
N1477       N  0.55484731  0.44713360  0.89900020    -0.59700
N1478       N  0.96166575  0.43033759  0.96116569    -0.05300
N1479       N  0.93938889  0.40437583  0.95552472    -0.60900
N1480       N  0.95815572  0.45525292  0.93632691    -0.07200
N1481       N  0.93332287  0.44658593  0.91337285    -0.60000
N1482       N  0.53892049  0.43123803  0.95312801    -0.04900
N1483       N  0.56043391  0.40555585  0.94205638    -0.61000
Mn1484     Mn  0.00497869  0.43128355  0.00054213     1.18400
C1485       C  0.57007471  0.41600184  0.90843071     0.97300
C1486       C  0.92161277  0.41496036  0.92587378     0.97900
N1487       N  0.54483370  0.04170645  0.56552202    -0.07200
N1488       N  0.57007109  0.04835810  0.58863621    -0.63500
N1489       N  0.96323333  0.06500956  0.54581692    -0.06000
N1490       N  0.93886979  0.08920414  0.55329109    -0.64200
N1491       N  0.96518464  0.04126034  0.57188460    -0.06700
N1492       N  0.94223925  0.04919051  0.59792110    -0.63800
N1493       N  0.54318796  0.06636682  0.54035813    -0.05600
N1494       N  0.56742000  0.09033397  0.54608972    -0.64500
Mn1495     Mn  0.50606381  0.99948697  0.56835735     1.10700
C1496       C  0.58438185  0.07868021  0.57611909     0.98500
C1497       C  0.92561496  0.07884030  0.58559340     0.98600
N1498       N  0.95750783  0.03977630  0.93526641    -0.06700
N1499       N  0.93358993  0.04780442  0.91106627    -0.62100
N1500       N  0.53854050  0.06292208  0.95429951    -0.06100
N1501       N  0.56287014  0.08613679  0.94672580    -0.58800
N1502       N  0.53746465  0.03824460  0.92882775    -0.07400
N1503       N  0.56128816  0.04429384  0.90346711    -0.61700
N1504       N  0.95855659  0.06471958  0.96050885    -0.06400
N1505       N  0.93494209  0.08992867  0.95418223    -0.58900
Mn1506     Mn  0.99692416  0.49884820  0.93205761     1.20200
Mn1507     Mn  0.50025094  0.06706730  0.49970043     1.10100
Cl1508     Cl  0.50196232  0.99939809  0.49895683    -0.86800
C1509       C  0.91928767  0.07875787  0.92352681     0.95500
C1510       C  0.57724884  0.07414255  0.91520535     0.95300
C1511       C  0.67244562  0.16260348  0.82817663    -0.03400
C1512       C  0.66596285  0.32085494  0.82768431    -0.03400
C1513       C  0.68449828  0.32933691  0.66429494    -0.03400
C1514       C  0.67734864  0.17265659  0.66195064    -0.03400
C1515       C  0.82215883  0.16790466  0.83532576    -0.03400
C1516       C  0.83509614  0.17707608  0.67139434    -0.03400
C1517       C  0.84104915  0.33028929  0.68296023    -0.03400
C1518       C  0.81905841  0.33063274  0.84333182    -0.03400
C1519       C  0.84759388  0.33394190  0.72536505    -0.07000
C1520       C  0.83529070  0.36525026  0.74373768    -0.18100
C1521       C  0.83456425  0.36781347  0.78215085     0.10200
C1522       C  0.83407165  0.33588099  0.80293141    -0.06900
C1523       C  0.85317430  0.30794877  0.78587132    -0.18200
C1524       C  0.86297459  0.30820754  0.74898053     0.10200
S1525       S  0.85036857  0.40950845  0.79993752    -0.33100
S1526       S  0.90350471  0.28540671  0.73945145    -0.33100
H1527       H  0.91778940  0.28915280  0.77428832     0.28200
H1528       H  0.83324543  0.40904265  0.83341346     0.28200
H1529       H  0.82938515  0.38882559  0.72799449     0.18800
H1530       H  0.86367560  0.28708201  0.80236407     0.18800
C1531       C  0.84471388  0.21590632  0.65785130    -0.07000
C1532       C  0.87689467  0.23216342  0.66462981    -0.18100
C1533       C  0.87918961  0.26994787  0.66580182     0.10200
C1534       C  0.84765907  0.29096122  0.66648343    -0.06900
C1535       C  0.82198935  0.27510368  0.64454626    -0.18200
C1536       C  0.82178290  0.23830769  0.63789376     0.10200
S1537       S  0.92141548  0.28757038  0.65431023    -0.33100
S1538       S  0.79637898  0.22201699  0.60064398    -0.33100
H1539       H  0.77868877  0.25411471  0.59283494     0.28200
H1540       H  0.91894894  0.31821099  0.67551118     0.28200
H1541       H  0.89974110  0.21593586  0.67005374     0.18800
H1542       H  0.80245056  0.29132761  0.63153253     0.18800
C1543       C  0.83178037  0.16682029  0.79286847    -0.07000
C1544       C  0.82366586  0.13797421  0.76959921    -0.18100
C1545       C  0.82729242  0.13939163  0.73126202     0.10200
C1546       C  0.83886851  0.17104885  0.71387020    -0.06900
C1547       C  0.85263347  0.19701809  0.73745846    -0.18200
C1548       C  0.85196289  0.19376693  0.77537264     0.10200
S1549       S  0.81875127  0.09946223  0.70531651    -0.33100
S1550       S  0.88446624  0.22005024  0.79777184    -0.33100
H1551       H  0.88977122  0.19879501  0.82818972     0.28200
H1552       H  0.80566733  0.07870811  0.73390952     0.28200
H1553       H  0.81772575  0.11276456  0.78088402     0.18800
H1554       H  0.86476777  0.22034883  0.72724024     0.18800
C1555       C  0.81918553  0.20970849  0.84409026    -0.07000
C1556       C  0.84054270  0.22802667  0.86915032    -0.18100
C1557       C  0.83886950  0.26605013  0.87422591     0.10200
C1558       C  0.81873859  0.28805991  0.85015004    -0.06900
C1559       C  0.79594332  0.26906828  0.82785560    -0.18200
C1560       C  0.79446271  0.23201045  0.82574095     0.10200
S1561       S  0.85963411  0.28386142  0.91390619    -0.33100
S1562       S  0.75766828  0.21720476  0.80001319    -0.33100
H1563       H  0.76912667  0.18377821  0.78896953     0.28200
H1564       H  0.86684733  0.25115755  0.93093448     0.28200
H1565       H  0.85844686  0.21242001  0.88526132     0.18800
H1566       H  0.77790257  0.28385878  0.81139810     0.18800
C1567       C  0.79438722  0.17232961  0.66540008    -0.07000
C1568       C  0.77830435  0.14604248  0.64333093    -0.18100
C1569       C  0.74147783  0.14535738  0.63757299     0.10200
C1570       C  0.71866275  0.16958203  0.65731023    -0.06900
C1571       C  0.73559978  0.19452488  0.67936703    -0.18200
C1572       C  0.77098490  0.19645369  0.68291290     0.10200
S1573       S  0.72716250  0.11083096  0.60744948    -0.33100
S1574       S  0.78376500  0.23087589  0.71251996    -0.33100
H1575       H  0.78630528  0.20489795  0.73841177     0.28200
H1576       H  0.70291573  0.13206243  0.58918857     0.28200
H1577       H  0.79388399  0.12520633  0.63064291     0.18800
H1578       H  0.72020326  0.21305163  0.69592222     0.18800
C1579       C  0.67374792  0.28991506  0.65400216    -0.07000
C1580       C  0.69359330  0.26966733  0.62881410    -0.18100
C1581       C  0.69015028  0.23260718  0.62615898     0.10200
C1582       C  0.67043365  0.21361560  0.65322457    -0.06900
C1583       C  0.64571828  0.23471697  0.67252914    -0.18200
C1584       C  0.64476246  0.27193388  0.67004774     0.10200
S1585       S  0.71097602  0.21208743  0.58698832    -0.33100
S1586       S  0.60695838  0.29364166  0.69063418    -0.33100
H1587       H  0.60771724  0.32439329  0.66957131     0.28200
H1588       H  0.68455729  0.18803016  0.58014618     0.28200
H1589       H  0.71201272  0.28278507  0.61108376     0.18800
H1590       H  0.62503630  0.22299621  0.68761905     0.18800
C1591       C  0.72638128  0.33192028  0.66056635    -0.07000
C1592       C  0.74619106  0.30660073  0.67924848    -0.18100
C1593       C  0.77650760  0.31557627  0.69639179     0.10200
C1594       C  0.80002933  0.33859674  0.67902122    -0.06900
C1595       C  0.78421664  0.36051284  0.65186898    -0.18200
C1596       C  0.74807224  0.35729054  0.64235000     0.10200
S1597       S  0.77213062  0.31290043  0.74458221    -0.33100
S1598       S  0.73581770  0.37779438  0.60026408    -0.33100
H1599       H  0.71588029  0.34882901  0.58873823     0.28200
H1600       H  0.79902724  0.28805571  0.74861252     0.28200
H1601       H  0.73733293  0.28017141  0.68368052     0.18800
H1602       H  0.79967595  0.37910192  0.63666576     0.18800
C1603       C  0.67582608  0.33220767  0.70730531    -0.07000
C1604       C  0.68624667  0.30211724  0.72799132    -0.18100
C1605       C  0.67431075  0.29500464  0.76245075     0.10200
C1606       C  0.66254692  0.32289661  0.78504142    -0.06900
C1607       C  0.65334975  0.35485675  0.76660492    -0.18200
C1608       C  0.65482853  0.35749267  0.72803922     0.10200
S1609       S  0.65841442  0.25053158  0.76622581    -0.33100
S1610       S  0.62416008  0.38876353  0.70881853    -0.33100
H1611       H  0.60424330  0.39573266  0.74049386     0.28200
H1612       H  0.68953120  0.23380693  0.75406024     0.28200
H1613       H  0.69573671  0.27848795  0.71494265     0.18800
H1614       H  0.64327469  0.37739861  0.78206664     0.18800
C1615       C  0.70475463  0.33238389  0.83750862    -0.07000
C1616       C  0.72519827  0.35118527  0.81225715    -0.18100
C1617       C  0.75979754  0.36024931  0.81873680     0.10200
C1618       C  0.77901918  0.34244803  0.84624592    -0.06900
C1619       C  0.75811341  0.32740895  0.87395920    -0.18200
C1620       C  0.72152895  0.32577916  0.87171885     0.10200
S1621       S  0.76830326  0.40543865  0.80608602    -0.33100
S1622       S  0.69953693  0.31749324  0.91454298    -0.33100
H1623       H  0.66583550  0.31284709  0.90228220     0.28200
H1624       H  0.75396091  0.40285860  0.77117143     0.28200
H1625       H  0.71330093  0.36344920  0.78916269     0.18800
H1626       H  0.77067640  0.31669918  0.89781392     0.18800
C1627       C  0.66875326  0.16291699  0.78459910    -0.07000
C1628       C  0.69848481  0.15500685  0.76309194    -0.18100
C1629       C  0.69713681  0.14701599  0.72622975     0.10200
C1630       C  0.67075007  0.16256030  0.70428558    -0.06900
C1631       C  0.63947861  0.16921871  0.72405798    -0.18200
C1632       C  0.63775683  0.16966422  0.76305930     0.10200
S1633       S  0.72491285  0.11030697  0.71089539    -0.33100
S1634       S  0.59489231  0.18128415  0.78056941    -0.33100
H1635       H  0.59462347  0.16033757  0.81151277     0.28200
H1636       H  0.74435776  0.10601240  0.74269111     0.28200
H1637       H  0.72368302  0.15259489  0.77415046     0.18800
H1638       H  0.61564148  0.17311167  0.70921701     0.18800
C1639       C  0.71071883  0.14896732  0.84118461    -0.07000
C1640       C  0.72613724  0.16216146  0.87264649    -0.18100
C1641       C  0.76195092  0.16877637  0.87380945     0.10200
C1642       C  0.78423801  0.15354875  0.84575224    -0.06900
C1643       C  0.76904303  0.12317795  0.82951989    -0.18200
C1644       C  0.73207393  0.12024706  0.82756512     0.10200
S1645       S  0.77450677  0.19528331  0.91291983    -0.33100
S1646       S  0.71385532  0.07890692  0.81297392    -0.33100
H1647       H  0.74522247  0.06271044  0.80086629     0.28200
H1648       H  0.81011676  0.18874998  0.91495248     0.28200
H1649       H  0.71055598  0.16732998  0.89633313     0.18800
H1650       H  0.78507675  0.10064619  0.82187853     0.18800
C1651       C  0.66218195  0.28041578  0.84057621    -0.07000
C1652       C  0.69296529  0.25897262  0.83949231    -0.18100
C1653       C  0.69251621  0.22522336  0.85427737     0.10200
C1654       C  0.66581261  0.20330050  0.84151061    -0.06900
C1655       C  0.63300352  0.22143640  0.84448951    -0.18200
C1656       C  0.63117045  0.25970375  0.84809433     0.10200
S1657       S  0.69251210  0.23106460  0.90323202    -0.33100
S1658       S  0.59201045  0.27658116  0.86974583    -0.33100
H1659       H  0.60902251  0.30068476  0.89240527     0.28200
H1660       H  0.72449338  0.24878462  0.90270000     0.28200
H1661       H  0.71789761  0.26907410  0.83147852     0.18800
H1662       H  0.60955682  0.20630994  0.84761703     0.18800
C1663       C  0.64682331  0.13708726  0.84819725    -0.03000
C1664       C  0.64271102  0.14331128  0.88597520    -0.18100
C1665       C  0.62269936  0.12201517  0.90878647     0.10200
C1666       C  0.60349983  0.09406442  0.89378042    -0.06900
C1667       C  0.60753466  0.08650065  0.85672048    -0.18200
C1668       C  0.62898817  0.10658610  0.83373331     0.10200
S1669       S  0.62306158  0.13096366  0.95717963    -0.33100
S1670       S  0.62662410  0.09165605  0.78687882    -0.33100
H1671       H  0.66035729  0.09744528  0.77483500     0.28200
H1672       H  0.65067948  0.15514790  0.95716997     0.28200
H1673       H  0.65470155  0.16591485  0.89829436     0.18800
H1674       H  0.59293841  0.06482920  0.84511173     0.18800
C1675       C  0.61584130  0.39759287  0.59422808    -0.07000
C1676       C  0.63959080  0.41399508  0.61774199    -0.18100
C1677       C  0.66359166  0.39411822  0.63910710     0.10200
C1678       C  0.66345421  0.35578369  0.63833267    -0.06900
C1679       C  0.64198755  0.34080674  0.61090022    -0.18200
C1680       C  0.61794457  0.36028725  0.59056801     0.10200
S1681       S  0.69210790  0.42075213  0.66689585    -0.33100
S1682       S  0.58785409  0.33553902  0.56280596    -0.33100
H1683       H  0.60596835  0.30266045  0.56180303     0.28200
H1684       H  0.70483323  0.39400464  0.68959407     0.28200
H1685       H  0.63917450  0.44279920  0.61993593     0.18800
H1686       H  0.64188343  0.31272700  0.60548026     0.18800
C1687       C  0.85984133  0.15063884  0.64986585    -0.07000
C1688       C  0.85384885  0.14501344  0.61257258    -0.18100
C1689       C  0.87298104  0.12000145  0.59185168     0.10200
C1690       C  0.90098187  0.10117105  0.60740948    -0.06900
C1691       C  0.90922037  0.10818944  0.64343774    -0.18200
C1692       C  0.89051988  0.13359250  0.66426819     0.10200
S1693       S  0.85955096  0.11266360  0.54586674    -0.33100
S1694       S  0.91195148  0.14733962  0.70531082    -0.33100
H1695       H  0.92815421  0.11430221  0.71266609     0.28200
H1696       H  0.86897568  0.07628614  0.54474755     0.28200
H1697       H  0.83321619  0.15943165  0.59927167     0.18800
H1698       H  0.93251844  0.09587087  0.65437808     0.18800
C1699       C  0.60990137  0.10072652  0.59660694    -0.07000
C1700       C  0.60852990  0.13726786  0.59092533    -0.18100
C1701       C  0.62823115  0.16141888  0.61079908     0.10200
C1702       C  0.65317239  0.14881833  0.63738590    -0.06900
C1703       C  0.65372356  0.11146319  0.64306481    -0.18200
C1704       C  0.63308434  0.08753177  0.62301916     0.10200
S1705       S  0.61592289  0.20714081  0.60066191    -0.33100
S1706       S  0.63768603  0.04019055  0.63063609    -0.33100
H1707       H  0.66358367  0.04198059  0.65722996     0.28200
H1708       H  0.61222405  0.20223054  0.56296602     0.28200
H1709       H  0.58984643  0.14760112  0.57169123     0.18800
H1710       H  0.67089179  0.10067385  0.66325671     0.18800
C1711       C  0.84388766  0.35168891  0.86960365    -0.07000
C1712       C  0.88026287  0.34549072  0.86452667    -0.18100
C1713       C  0.90576893  0.36530778  0.88225676     0.10200
C1714       C  0.89580308  0.39259132  0.90677970    -0.06900
C1715       C  0.86035873  0.39852697  0.91364623    -0.18200
C1716       C  0.83428360  0.37919153  0.89570756     0.10200
S1717       S  0.95078405  0.35395623  0.87242715    -0.33100
S1718       S  0.79012328  0.39296615  0.90710536    -0.33100
H1719       H  0.79727013  0.42681572  0.92153412     0.28200
H1720       H  0.96430942  0.38805179  0.87808307     0.28200
H1721       H  0.88930261  0.32477542  0.84605106     0.18800
H1722       H  0.85308852  0.41898553  0.93330146     0.18800
C1723       C  0.89498068  0.10091577  0.90213736    -0.07000
C1724       C  0.90551167  0.11134330  0.86765161    -0.18100
C1725       C  0.88365433  0.13102338  0.84456330     0.10200
C1726       C  0.84995041  0.14449629  0.85744949    -0.06900
C1727       C  0.83975249  0.13096385  0.89204801    -0.18200
C1728       C  0.86120836  0.10981137  0.91389983     0.10200
S1729       S  0.90062217  0.13179343  0.79860073    -0.33100
S1730       S  0.84237668  0.09248710  0.95511192    -0.33100
H1731       H  0.86346137  0.06166272  0.95742148     0.28200
H1732       H  0.93580036  0.13617237  0.80773585     0.28200
H1733       H  0.93089992  0.10218072  0.85790962     0.18800
H1734       H  0.81354486  0.13376878  0.90202736     0.18800
C1735       C  0.59400643  0.39566696  0.88494608    -0.07000
C1736       C  0.58097461  0.37429699  0.85725640    -0.18100
C1737       C  0.60280940  0.35098343  0.83704531     0.10200
C1738       C  0.63923704  0.34800294  0.84576907    -0.06900
C1739       C  0.65164952  0.37435207  0.87025488    -0.18200
C1740       C  0.62975040  0.39668396  0.89051659     0.10200
S1741       S  0.58115564  0.32891675  0.79973668    -0.33100
S1742       S  0.64923288  0.42544850  0.92387615    -0.33100
H1743       H  0.62475863  0.45354221  0.92122870     0.28200
H1744       H  0.60226580  0.29845213  0.79659869     0.28200
H1745       H  0.55329585  0.37531101  0.85176829     0.18800
H1746       H  0.67883866  0.37839633  0.87499336     0.18800
C1747       C  0.90382324  0.39918671  0.61047397    -0.07000
C1748       C  0.90828562  0.40170073  0.64795072    -0.18100
C1749       C  0.89004599  0.38038253  0.67265171     0.10200
C1750       C  0.86379668  0.35645857  0.65970667    -0.06900
C1751       C  0.85988200  0.35461404  0.62145008    -0.18200
C1752       C  0.87894878  0.37551617  0.59716643     0.10200
S1753       S  0.90793726  0.38103566  0.71795994    -0.33100
S1754       S  0.86949374  0.37121669  0.54954592    -0.33100
H1755       H  0.87391069  0.40752382  0.54174232     0.28200
H1756       H  0.91875732  0.41668603  0.71776420     0.28200
H1757       H  0.92861219  0.41872013  0.65793485     0.18800
H1758       H  0.84129248  0.33657719  0.60991707     0.18800
N1759       N  0.96853347  0.95574441  0.07056041    -0.07000
N1760       N  0.94519185  0.94927779  0.09609562    -0.59100
N1761       N  0.54687807  0.93169054  0.03955948    -0.06700
N1762       N  0.57299204  0.90876188  0.04359505    -0.61200
N1763       N  0.54803306  0.95655231  0.06486025    -0.06300
N1764       N  0.57513173  0.95093145  0.08625117    -0.59100
N1765       N  0.96825998  0.93067600  0.04546623    -0.05900
N1766       N  0.94462916  0.90664331  0.05346381    -0.61600
C1767       C  0.93013574  0.91885601  0.08493275     0.95200
C1768       C  0.59082102  0.92094558  0.07261182     0.95000
N1769       N  0.53706406  0.95777718  0.42607112    -0.07200
N1770       N  0.55625196  0.94965283  0.39716248    -0.59700
N1771       N  0.95987379  0.92930425  0.46147770    -0.05300
N1772       N  0.93777586  0.90335080  0.45532762    -0.60900
N1773       N  0.95708686  0.95404157  0.43636506    -0.07200
N1774       N  0.93295813  0.94537367  0.41274123    -0.60000
N1775       N  0.54071264  0.93332508  0.45128949    -0.04900
N1776       N  0.56261749  0.90803600  0.44005138    -0.61000
Mn1777     Mn  0.00277402  0.92980436  0.50103467     1.18400
C1778       C  0.57205758  0.91878666  0.40645370     0.97300
C1779       C  0.92096496  0.91391942  0.42510291     0.97900
N1780       N  0.54629187  0.54088052  0.06697552    -0.07200
N1781       N  0.57074826  0.54849209  0.09072666    -0.63500
N1782       N  0.96359765  0.56544067  0.04727465    -0.06000
N1783       N  0.93870126  0.58900704  0.05489957    -0.64200
N1784       N  0.96585686  0.54136223  0.07300390    -0.06700
N1785       N  0.94265898  0.54850347  0.09903665    -0.63800
N1786       N  0.54444156  0.56548747  0.04174441    -0.05600
N1787       N  0.56774109  0.59027809  0.04805433    -0.64500
Mn1788     Mn  0.50716050  0.49878273  0.07019906     1.10700
C1789       C  0.58439428  0.57928668  0.07849459     0.98500
C1790       C  0.92551985  0.57795546  0.08697577     0.98600
N1791       N  0.95713677  0.53998630  0.43491963    -0.06700
N1792       N  0.93342790  0.54801761  0.41050304    -0.62100
N1793       N  0.53884062  0.56368941  0.45345407    -0.06100
N1794       N  0.56257634  0.58756487  0.44588352    -0.58800
N1795       N  0.53805313  0.53925697  0.42772072    -0.07400
N1796       N  0.56150696  0.54615425  0.40218677    -0.61700
N1797       N  0.95809972  0.56499005  0.46009327    -0.06400
N1798       N  0.93463808  0.59027256  0.45349790    -0.58900
Mn1799     Mn  0.99626905  0.99657000  0.43164886     1.20200
Mn1800     Mn  0.50141431  0.56614948  0.00113807     1.10100
Cl1801     Cl  0.50201394  0.49842492  0.00077256    -0.86800
C1802       C  0.91917938  0.57907008  0.42274324     0.95500
C1803       C  0.57694909  0.57626522  0.41409501     0.95300
C1804       C  0.67278379  0.66570588  0.32824564    -0.03400
C1805       C  0.66726196  0.82385632  0.32488552    -0.03400
C1806       C  0.68650348  0.83234511  0.16161605    -0.03400
C1807       C  0.67715867  0.67575588  0.16206154    -0.03400
C1808       C  0.82271956  0.66911855  0.33464199    -0.03400
C1809       C  0.83489792  0.67733778  0.17079051    -0.03400
C1810       C  0.84315150  0.82999789  0.18012736    -0.03400
C1811       C  0.82041383  0.83172542  0.33954789    -0.03400
C1812       C  0.84990926  0.83361618  0.22231463    -0.07000
C1813       C  0.83901928  0.86552220  0.24044748    -0.18100
C1814       C  0.83828796  0.86812321  0.27879438     0.10200
C1815       C  0.83617599  0.83626069  0.29946181    -0.06900
C1816       C  0.85455729  0.80765820  0.28271010    -0.18200
C1817       C  0.86452425  0.80747928  0.24589389     0.10200
S1818       S  0.85469712  0.90938990  0.29702056    -0.33100
S1819       S  0.90514911  0.78461121  0.23672822    -0.33100
H1820       H  0.91922516  0.78876344  0.27161115     0.28200
H1821       H  0.83507856  0.91040421  0.32904243     0.28200
H1822       H  0.83411813  0.88927169  0.22461504     0.18800
H1823       H  0.86454522  0.78673734  0.29941030     0.18800
C1824       C  0.84509729  0.71572213  0.15654163    -0.07000
C1825       C  0.87748374  0.73157184  0.16308764    -0.18100
C1826       C  0.88034246  0.76924986  0.16338187     0.10200
C1827       C  0.84913789  0.79066905  0.16369028    -0.06900
C1828       C  0.82327163  0.77498550  0.14190968    -0.18200
C1829       C  0.82260998  0.73805924  0.13593115     0.10200
S1830       S  0.92252589  0.78588951  0.15036158    -0.33100
S1831       S  0.79734793  0.72130534  0.09880486    -0.33100
H1832       H  0.78252014  0.75403765  0.08807138     0.28200
H1833       H  0.92172251  0.81599981  0.17232437     0.28200
H1834       H  0.90014293  0.71517584  0.16865706     0.18800
H1835       H  0.80387252  0.79135446  0.12879880     0.18800
C1836       C  0.83222346  0.66768860  0.29222076    -0.07000
C1837       C  0.82370000  0.63883722  0.26920629    -0.18100
C1838       C  0.82692950  0.64014440  0.23086466     0.10200
C1839       C  0.83858641  0.67166699  0.21326807    -0.06900
C1840       C  0.85268718  0.69766517  0.23656707    -0.18200
C1841       C  0.85246446  0.69444121  0.27446406     0.10200
S1842       S  0.81773324  0.60022064  0.20518564    -0.33100
S1843       S  0.88563046  0.72022422  0.29644074    -0.33100
H1844       H  0.89045049  0.69930945  0.32720668     0.28200
H1845       H  0.80485437  0.57964404  0.23401632     0.28200
H1846       H  0.81770424  0.61372205  0.28069665     0.18800
H1847       H  0.86481872  0.72089345  0.22605767     0.18800
C1848       C  0.81994367  0.71101006  0.34278974    -0.07000
C1849       C  0.84138786  0.72963357  0.36747242    -0.18100
C1850       C  0.83972304  0.76770980  0.37193805     0.10200
C1851       C  0.81981826  0.78934675  0.34726273    -0.06900
C1852       C  0.79706452  0.77010144  0.32520941    -0.18200
C1853       C  0.79530041  0.73306941  0.32403523     0.10200
S1854       S  0.85960458  0.78599322  0.41195079    -0.33100
S1855       S  0.75826230  0.71796948  0.29894075    -0.33100
H1856       H  0.77004853  0.68477505  0.28748083     0.28200
H1857       H  0.87160062  0.75373104  0.42689783     0.28200
H1858       H  0.85915536  0.71418050  0.38387897     0.18800
H1859       H  0.77925167  0.78465276  0.30824724     0.18800
C1860       C  0.79408461  0.67330663  0.16502325    -0.07000
C1861       C  0.77738076  0.64696010  0.14355568    -0.18100
C1862       C  0.74058066  0.64708167  0.13775848     0.10200
C1863       C  0.71834184  0.67197263  0.15726716    -0.06900
C1864       C  0.73579624  0.69693092  0.17884220    -0.18200
C1865       C  0.77123259  0.69823820  0.18218173     0.10200
S1866       S  0.72550098  0.61275406  0.10781553    -0.33100
S1867       S  0.78480740  0.73308843  0.21090108    -0.33100
H1868       H  0.78727386  0.70790040  0.23751278     0.28200
H1869       H  0.70129265  0.63423204  0.08980281     0.28200
H1870       H  0.79237322  0.62540287  0.13141548     0.18800
H1871       H  0.72078365  0.71602509  0.19508499     0.18800
C1872       C  0.67479864  0.79319582  0.15080230    -0.07000
C1873       C  0.69505797  0.77190605  0.12687013    -0.18100
C1874       C  0.69098104  0.73484729  0.12503583     0.10200
C1875       C  0.67081348  0.71671539  0.15240734    -0.06900
C1876       C  0.64624674  0.73868124  0.17096316    -0.18200
C1877       C  0.64551843  0.77583644  0.16683700     0.10200
S1878       S  0.71151398  0.71318823  0.08637380    -0.33100
S1879       S  0.60729070  0.79877003  0.18449836    -0.33100
H1880       H  0.60779324  0.82575479  0.15839805     0.28200
H1881       H  0.68404964  0.69032519  0.07953209     0.28200
H1882       H  0.71414499  0.78426891  0.10930991     0.18800
H1883       H  0.62544303  0.72761746  0.18645908     0.18800
C1884       C  0.72846304  0.83463584  0.15826761    -0.07000
C1885       C  0.74799816  0.80832974  0.17596300    -0.18100
C1886       C  0.77847148  0.81636395  0.19336986     0.10200
C1887       C  0.80234766  0.83914046  0.17640758    -0.06900
C1888       C  0.78679605  0.86278267  0.15075431    -0.18200
C1889       C  0.75045169  0.86099783  0.14170649     0.10200
S1890       S  0.77295456  0.81569763  0.24148692    -0.33100
S1891       S  0.73796351  0.88614310  0.10244474    -0.33100
H1892       H  0.72128939  0.85717228  0.08614890     0.28200
H1893       H  0.79922925  0.79051868  0.24700482     0.28200
H1894       H  0.73868298  0.78200844  0.17993942     0.18800
H1895       H  0.80255455  0.88191748  0.13660565     0.18800
C1896       C  0.67716926  0.83489366  0.20448797    -0.07000
C1897       C  0.68782146  0.80491414  0.22516339    -0.18100
C1898       C  0.67602092  0.79784088  0.25975398     0.10200
C1899       C  0.66378713  0.82563306  0.28220167    -0.06900
C1900       C  0.65403499  0.85730560  0.26356243    -0.18200
C1901       C  0.65516858  0.85950813  0.22498362     0.10200
S1902       S  0.66062207  0.75331003  0.26398959    -0.33100
S1903       S  0.62140357  0.88728001  0.20562177    -0.33100
H1904       H  0.60264170  0.89508400  0.23785056     0.28200
H1905       H  0.69191150  0.73689609  0.25192315     0.28200
H1906       H  0.69739320  0.78140053  0.21201054     0.18800
H1907       H  0.64336524  0.87971463  0.27879121     0.18800
C1908       C  0.70605974  0.83532305  0.33436922    -0.07000
C1909       C  0.72625383  0.85406683  0.30893255    -0.18100
C1910       C  0.76131989  0.86185153  0.31431471     0.10200
C1911       C  0.78050704  0.84387382  0.34184800    -0.06900
C1912       C  0.75966083  0.82979130  0.37013345    -0.18200
C1913       C  0.72306533  0.82879792  0.36839802     0.10200
S1914       S  0.77198632  0.90530540  0.29774646    -0.33100
S1915       S  0.70136683  0.82173812  0.41160344    -0.33100
H1916       H  0.66763777  0.81674561  0.39961920     0.28200
H1917       H  0.75711512  0.90069691  0.26329340     0.28200
H1918       H  0.71399764  0.86674887  0.28625690     0.18800
H1919       H  0.77229675  0.81944681  0.39411222     0.18800
C1920       C  0.66900228  0.66637505  0.28477716    -0.07000
C1921       C  0.69852521  0.65803885  0.26324280    -0.18100
C1922       C  0.69699780  0.65026432  0.22641496     0.10200
C1923       C  0.67079953  0.66641192  0.20456534    -0.06900
C1924       C  0.63974208  0.67383605  0.22440824    -0.18200
C1925       C  0.63808826  0.67397420  0.26338691     0.10200
S1926       S  0.72422495  0.61304253  0.21120418    -0.33100
S1927       S  0.59550091  0.68646306  0.28106328    -0.33100
H1928       H  0.59469138  0.66493980  0.31159695     0.28200
H1929       H  0.74447949  0.60918042  0.24249598     0.28200
H1930       H  0.72361119  0.65489577  0.27429755     0.18800
H1931       H  0.61597031  0.67841761  0.20966983     0.18800
C1932       C  0.71093203  0.65160390  0.34126639    -0.07000
C1933       C  0.72667283  0.66497719  0.37247681    -0.18100
C1934       C  0.76265525  0.67094132  0.37349975     0.10200
C1935       C  0.78465774  0.65523502  0.34543573    -0.06900
C1936       C  0.76896211  0.62504440  0.32942009    -0.18200
C1937       C  0.73193407  0.62259983  0.32764690     0.10200
S1938       S  0.77579435  0.69744928  0.41240226    -0.33100
S1939       S  0.71316382  0.58172680  0.31249823    -0.33100
H1940       H  0.74431083  0.56528322  0.30009810     0.28200
H1941       H  0.81140925  0.69079376  0.41398702     0.28200
H1942       H  0.71112374  0.67091082  0.39603897     0.18800
H1943       H  0.78466578  0.60234186  0.32159256     0.18800
C1944       C  0.66345489  0.78353145  0.33827234    -0.07000
C1945       C  0.69415451  0.76192999  0.33703263    -0.18100
C1946       C  0.69395463  0.72850991  0.35266554     0.10200
C1947       C  0.66671917  0.70644867  0.34148609    -0.06900
C1948       C  0.63413194  0.72484456  0.34462056    -0.18200
C1949       C  0.63252601  0.76315096  0.34707380     0.10200
S1950       S  0.69565920  0.73548041  0.40135360    -0.33100
S1951       S  0.59361732  0.78060647  0.36873766    -0.33100
H1952       H  0.61090361  0.80490009  0.39093183     0.28200
H1953       H  0.72776221  0.75294146  0.39917339     0.28200
H1954       H  0.71895279  0.77183233  0.32823887     0.18800
H1955       H  0.61067476  0.70989929  0.34864844     0.18800
C1956       C  0.64673246  0.64031287  0.34792989    -0.03000
C1957       C  0.64267068  0.64601276  0.38578578    -0.18100
C1958       C  0.62229111  0.62457094  0.40823806     0.10200
C1959       C  0.60292299  0.59689439  0.39282059    -0.06900
C1960       C  0.60674419  0.59007655  0.35560503    -0.18200
C1961       C  0.62839035  0.61033551  0.33296037     0.10200
S1962       S  0.62258605  0.63268279  0.45677480    -0.33100
S1963       S  0.62576749  0.59621995  0.28586563    -0.33100
H1964       H  0.65985290  0.60081703  0.27430346     0.28200
H1965       H  0.64775422  0.65949375  0.45704728     0.28200
H1966       H  0.65516033  0.66822509  0.39837851     0.18800
H1967       H  0.59191957  0.56876179  0.34363267     0.18800
C1968       C  0.62060836  0.90117393  0.09034373    -0.07000
C1969       C  0.63988266  0.91712769  0.11832386    -0.18100
C1970       C  0.66431245  0.89752667  0.13938439     0.10200
C1971       C  0.66687463  0.85944297  0.13554785    -0.06900
C1972       C  0.65109223  0.84565906  0.10368006    -0.18200
C1973       C  0.62932131  0.86558992  0.08125387     0.10200
S1974       S  0.68981912  0.92387571  0.17053094    -0.33100
S1975       S  0.61384447  0.84298737  0.04135916    -0.33100
H1976       H  0.62405876  0.87042872  0.01779057     0.28200
H1977       H  0.70728480  0.89633658  0.18841225     0.28200
H1978       H  0.63583216  0.94524377  0.12405867     0.18800
H1979       H  0.65555965  0.81859599  0.09476810     0.18800
C1980       C  0.85941338  0.65023522  0.14991135    -0.07000
C1981       C  0.85275056  0.64285775  0.11310104    -0.18100
C1982       C  0.87154632  0.61687891  0.09337033     0.10200
C1983       C  0.90050516  0.59969560  0.10884497    -0.06900
C1984       C  0.90950226  0.60851266  0.14420429    -0.18200
C1985       C  0.89062396  0.63424148  0.16442430     0.10200
S1986       S  0.85625527  0.60576670  0.04894550    -0.33100
S1987       S  0.91230156  0.64952406  0.20476396    -0.33100
H1988       H  0.92990419  0.61732290  0.21248671     0.28200
H1989       H  0.86795831  0.57005587  0.04932525     0.28200
H1990       H  0.83188191  0.65660290  0.09945377     0.18800
H1991       H  0.93339531  0.59729298  0.15494883     0.18800
C1992       C  0.60909081  0.60218954  0.09926116    -0.07000
C1993       C  0.60772767  0.63863324  0.09260100    -0.18100
C1994       C  0.62717622  0.66339679  0.11209347     0.10200
C1995       C  0.65259487  0.65143425  0.13842234    -0.06900
C1996       C  0.65288683  0.61427490  0.14533558    -0.18200
C1997       C  0.63201654  0.58981771  0.12629539     0.10200
S1998       S  0.61590426  0.70899765  0.10027773    -0.33100
S1999       S  0.63616988  0.54281102  0.13596331    -0.33100
H2000       H  0.66235434  0.54535165  0.16218084     0.28200
H2001       H  0.58051887  0.70358873  0.09271403     0.28200
H2002       H  0.59003370  0.64830964  0.07208389     0.18800
H2003       H  0.67004137  0.60398096  0.16572946     0.18800
C2004       C  0.84470072  0.85283427  0.36591493    -0.07000
C2005       C  0.88105446  0.84591849  0.36189793    -0.18100
C2006       C  0.90623345  0.86486995  0.38086292     0.10200
C2007       C  0.89576749  0.89189934  0.40538940    -0.06900
C2008       C  0.86037032  0.89902071  0.41064742    -0.18200
C2009       C  0.83463887  0.88053434  0.39159824     0.10200
S2010       S  0.95137900  0.85296581  0.37241398    -0.33100
S2011       S  0.79079454  0.89757314  0.39925978    -0.33100
H2012       H  0.79593946  0.91312116  0.43359590     0.28200
H2013       H  0.96522918  0.88675337  0.37903805     0.28200
H2014       H  0.89028241  0.82520272  0.34349429     0.18800
H2015       H  0.85292733  0.92043423  0.42916034     0.18800
C2016       C  0.89501366  0.60119449  0.40116457    -0.07000
C2017       C  0.90555549  0.61139813  0.36663855    -0.18100
C2018       C  0.88371166  0.63098785  0.34343967     0.10200
C2019       C  0.85051413  0.64561431  0.35673313    -0.06900
C2020       C  0.84032173  0.63237076  0.39146750    -0.18200
C2021       C  0.86145624  0.61062433  0.41306115     0.10200
S2022       S  0.90097348  0.63253578  0.29752216    -0.33100
S2023       S  0.84263543  0.59316603  0.45417926    -0.33100
H2024       H  0.86144642  0.56071299  0.45385720     0.28200
H2025       H  0.92140513  0.60106353  0.29809493     0.28200
H2026       H  0.93126221  0.60284984  0.35729096     0.18800
H2027       H  0.81425779  0.63572822  0.40168571     0.18800
C2028       C  0.59580895  0.89867016  0.38254507    -0.07000
C2029       C  0.58250667  0.87704165  0.35519371    -0.18100
C2030       C  0.60423948  0.85391307  0.33465409     0.10200
C2031       C  0.64076910  0.85124057  0.34286212    -0.06900
C2032       C  0.65341560  0.87798022  0.36675779    -0.18200
C2033       C  0.63165912  0.90028377  0.38722229     0.10200
S2034       S  0.58233255  0.83140162  0.29778416    -0.33100
S2035       S  0.65145303  0.92979911  0.41965369    -0.33100
H2036       H  0.62658707  0.95752989  0.41697385     0.28200
H2037       H  0.60364524  0.80105696  0.29468279     0.28200
H2038       H  0.55472497  0.87769034  0.35024866     0.18800
H2039       H  0.68067575  0.88228218  0.37090369     0.18800
C2040       C  0.90623844  0.89834444  0.10824985    -0.07000
C2041       C  0.91182899  0.89960059  0.14554885    -0.18100
C2042       C  0.89355752  0.87829851  0.17004742     0.10200
C2043       C  0.86630248  0.85564124  0.15703619    -0.06900
C2044       C  0.86151165  0.85472688  0.11889231    -0.18200
C2045       C  0.88058162  0.87571821  0.09477077     0.10200
S2046       S  0.91260152  0.87723698  0.21487500    -0.33100
S2047       S  0.87016787  0.87294525  0.04725219    -0.33100
H2048       H  0.87618258  0.90909221  0.03997615     0.28200
H2049       H  0.92424476  0.91259982  0.21537952     0.28200
H2050       H  0.93294833  0.91564286  0.15544311     0.18800
H2051       H  0.84215806  0.83750346  0.10741873     0.18800
N2052       N  0.96657067  0.95671378  0.57196797    -0.07000
N2053       N  0.94261129  0.95132378  0.59725483    -0.59100
N2054       N  0.54775547  0.93427054  0.53819379    -0.06700
N2055       N  0.57347352  0.91105277  0.54275656    -0.61200
N2056       N  0.54789455  0.95827670  0.56438245    -0.06300
N2057       N  0.57370858  0.95162087  0.58712763    -0.59100
N2058       N  0.96549651  0.93162929  0.54694239    -0.05900
N2059       N  0.94074669  0.90873759  0.55469988    -0.61600
C2060       C  0.92634992  0.92155043  0.58595689     0.95200
C2061       C  0.58966904  0.92189938  0.57332457     0.95000
N2062       N  0.53686598  0.95399937  0.92747169    -0.07200
N2063       N  0.55646492  0.94539462  0.89899945    -0.59700
N2064       N  0.96325875  0.92880063  0.95968229    -0.05300
N2065       N  0.94207144  0.90211431  0.95315641    -0.60900
N2066       N  0.95996707  0.95354115  0.93461393    -0.07200
N2067       N  0.93654816  0.94393223  0.91049251    -0.60000
N2068       N  0.53979582  0.92971513  0.95294423    -0.04900
N2069       N  0.56163716  0.90408679  0.94235795    -0.61000
Mn2070     Mn  0.00581779  0.93036636  0.99985387     1.18400
C2071       C  0.57178008  0.91443395  0.90883216     0.97300
C2072       C  0.92554993  0.91187975  0.92246071     0.97900
N2073       N  0.54485534  0.54033114  0.56524784    -0.07200
N2074       N  0.56921156  0.54787496  0.58912703    -0.63500
N2075       N  0.96181389  0.56509152  0.54515795    -0.06000
N2076       N  0.93668124  0.58872941  0.55173228    -0.64200
N2077       N  0.96325308  0.54118554  0.57110545    -0.06700
N2078       N  0.93909288  0.54848514  0.59614691    -0.63800
N2079       N  0.54328236  0.56488514  0.53995194    -0.05600
N2080       N  0.56667191  0.58957215  0.54631763    -0.64500
Mn2081     Mn  0.50597533  0.49789934  0.56777690     1.10700
C2082       C  0.58308137  0.57857355  0.57690637     0.98500
C2083       C  0.92231348  0.57792876  0.58336413     0.98600
N2084       N  0.95657957  0.54112883  0.93674946    -0.06700
N2085       N  0.93252768  0.54905522  0.91267568    -0.62100
N2086       N  0.53825964  0.56412524  0.95542722    -0.06100
N2087       N  0.56258475  0.58724903  0.94760060    -0.58800
N2088       N  0.53651437  0.53972595  0.92976067    -0.07400
N2089       N  0.55990698  0.54583574  0.90399910    -0.61700
N2090       N  0.95777895  0.56615344  0.96191224    -0.06400
N2091       N  0.93414261  0.59139590  0.95549920    -0.58900
Mn2092     Mn  0.99799752  0.99764858  0.93113586     1.20200
Mn2093     Mn  0.50099484  0.56504668  0.49862722     1.10100
Cl2094     Cl  0.50255825  0.49729051  0.49829367    -0.86800
C2095       C  0.91829728  0.58011255  0.92491280     0.95500
C2096       C  0.57626833  0.57544551  0.91569172     0.95300
C2097       C  0.67215594  0.66324731  0.82880955    -0.03400
C2098       C  0.66830626  0.82027893  0.82726535    -0.03400
C2099       C  0.68318676  0.83034587  0.66263484    -0.03400
C2100       C  0.67521609  0.67459274  0.66193791    -0.03400
C2101       C  0.82248988  0.66859886  0.83414832    -0.03400
C2102       C  0.83280884  0.67724467  0.66976319    -0.03400
C2103       C  0.83978025  0.83034588  0.67959313    -0.03400
C2104       C  0.82095596  0.83102887  0.83989754    -0.03400
C2105       C  0.84688482  0.83343949  0.72174690    -0.07000
C2106       C  0.83565655  0.86496937  0.74034344    -0.18100
C2107       C  0.83616093  0.86750222  0.77864037     0.10200
C2108       C  0.83526678  0.83559889  0.79932242    -0.06900
C2109       C  0.85300974  0.80699879  0.78180990    -0.18200
C2110       C  0.86217829  0.80722048  0.74483258     0.10200
S2111       S  0.85328935  0.90874112  0.79607544    -0.33100
S2112       S  0.90278738  0.78464773  0.73496382    -0.33100
H2113       H  0.91752115  0.78907335  0.76951163     0.28200
H2114       H  0.83489304  0.90982449  0.82880512     0.28200
H2115       H  0.82989918  0.88870222  0.72478223     0.18800
H2116       H  0.86317258  0.78558274  0.79785894     0.18800
C2117       C  0.84217481  0.71602775  0.65571740    -0.07000
C2118       C  0.87458553  0.73210622  0.66166535    -0.18100
C2119       C  0.87726997  0.76987120  0.66191756     0.10200
C2120       C  0.84600584  0.79118486  0.66272124    -0.06900
C2121       C  0.81985365  0.77535546  0.64154479    -0.18200
C2122       C  0.81893219  0.73843085  0.63585424     0.10200
S2123       S  0.91938124  0.78700749  0.64929846    -0.33100
S2124       S  0.79183245  0.72207536  0.59989882    -0.33100
H2125       H  0.77302295  0.75385774  0.59364525     0.28200
H2126       H  0.91746192  0.81786771  0.67019966     0.28200
H2127       H  0.89736939  0.71570655  0.66697569     0.18800
H2128       H  0.80039974  0.79173437  0.62856626     0.18800
C2129       C  0.83162114  0.66701232  0.79147216    -0.07000
C2130       C  0.82188908  0.63867336  0.76826029    -0.18100
C2131       C  0.82503600  0.63997307  0.72988353     0.10200
C2132       C  0.83714620  0.67129348  0.71223894    -0.06900
C2133       C  0.85224332  0.69671511  0.73554127    -0.18200
C2134       C  0.85245036  0.69321061  0.77352046     0.10200
S2135       S  0.81524793  0.60022739  0.70411817    -0.33100
S2136       S  0.88616401  0.71833414  0.79537133    -0.33100
H2137       H  0.89103991  0.69660939  0.82556592     0.28200
H2138       H  0.80371170  0.57905514  0.73310389     0.28200
H2139       H  0.81491842  0.61378041  0.77948439     0.18800
H2140       H  0.86514774  0.71944468  0.72492477     0.18800
C2141       C  0.82017386  0.71045860  0.84220800    -0.07000
C2142       C  0.84224973  0.72885719  0.86647074    -0.18100
C2143       C  0.84060065  0.76686551  0.87137531     0.10200
C2144       C  0.82024074  0.78867158  0.84734607    -0.06900
C2145       C  0.79691152  0.76967573  0.82570911    -0.18200
C2146       C  0.79517203  0.73266698  0.82421899     0.10200
S2147       S  0.86042838  0.78484325  0.91155656    -0.33100
S2148       S  0.75707862  0.71777387  0.80092920    -0.33100
H2149       H  0.76848231  0.68465221  0.78872280     0.28200
H2150       H  0.87440788  0.75273723  0.92497979     0.28200
H2151       H  0.86009171  0.71323614  0.88261925     0.18800
H2152       H  0.77860133  0.78439467  0.80942779     0.18800
C2153       C  0.79207178  0.67287536  0.66449890    -0.07000
C2154       C  0.77557489  0.64727969  0.64193702    -0.18100
C2155       C  0.73869736  0.64723800  0.63648302     0.10200
C2156       C  0.71641949  0.67139372  0.65685279    -0.06900
C2157       C  0.73377812  0.69614102  0.67871539    -0.18200
C2158       C  0.76917740  0.69719563  0.68254122     0.10200
S2159       S  0.72346495  0.61450624  0.60480835    -0.33100
S2160       S  0.78275470  0.73155098  0.71206481    -0.33100
H2161       H  0.78566268  0.70607827  0.73846263     0.28200
H2162       H  0.69912133  0.63698682  0.58805386     0.28200
H2163       H  0.79093116  0.62686139  0.62827104     0.18800
H2164       H  0.71867657  0.71511174  0.69487079     0.18800
C2165       C  0.67140431  0.79149350  0.65133742    -0.07000
C2166       C  0.69155887  0.77065678  0.62696966    -0.18100
C2167       C  0.68774855  0.73357490  0.62508005     0.10200
C2168       C  0.66824496  0.71542330  0.65281160    -0.06900
C2169       C  0.64305179  0.73688833  0.67107289    -0.18200
C2170       C  0.64201356  0.77405235  0.66715492     0.10200
S2171       S  0.70541934  0.71071603  0.58549723    -0.33100
S2172       S  0.60428416  0.79683571  0.68642233    -0.33100
H2173       H  0.60536748  0.82607365  0.66310311     0.28200
H2174       H  0.71061250  0.74127837  0.56427558     0.28200
H2175       H  0.71039175  0.78339129  0.60945262     0.18800
H2176       H  0.62236084  0.72550483  0.68648058     0.18800
C2177       C  0.72503325  0.83259600  0.65869477    -0.07000
C2178       C  0.74498610  0.80700338  0.67691747    -0.18100
C2179       C  0.77542131  0.81592885  0.69390012     0.10200
C2180       C  0.79878883  0.83895883  0.67635528    -0.06900
C2181       C  0.78274539  0.86133596  0.64980564    -0.18200
C2182       C  0.74651278  0.85838236  0.64077915     0.10200
S2183       S  0.77057671  0.81495902  0.74211771    -0.33100
S2184       S  0.73370811  0.88015216  0.59955846    -0.33100
H2185       H  0.71606502  0.85031035  0.58629438     0.28200
H2186       H  0.79691613  0.78973606  0.74712466     0.28200
H2187       H  0.73614610  0.78063497  0.68151420     0.18800
H2188       H  0.79803913  0.88017790  0.63475985     0.18800
C2189       C  0.67468663  0.83210060  0.70574982    -0.07000
C2190       C  0.68495824  0.80138718  0.72517408    -0.18100
C2191       C  0.67766674  0.79453614  0.76108266     0.10200
C2192       C  0.66500510  0.82183029  0.78436157    -0.06900
C2193       C  0.65438911  0.85367898  0.76617960    -0.18200
C2194       C  0.65449671  0.85690095  0.72762005     0.10200
S2195       S  0.67635619  0.74778791  0.76997360    -0.33100
S2196       S  0.62256123  0.88765232  0.70967210    -0.33100
H2197       H  0.60563643  0.89695656  0.74257339     0.28200
H2198       H  0.70716012  0.73858178  0.75108517     0.28200
H2199       H  0.69317788  0.77810768  0.71079024     0.18800
H2200       H  0.64455067  0.87604880  0.78200162     0.18800
C2201       C  0.70717824  0.83200565  0.83656790    -0.07000
C2202       C  0.72658899  0.85172985  0.81118607    -0.18100
C2203       C  0.76136126  0.86078218  0.81638463     0.10200
C2204       C  0.78121693  0.84336291  0.84364342    -0.06900
C2205       C  0.76105261  0.82932977  0.87245132    -0.18200
C2206       C  0.72450157  0.82670317  0.87077638     0.10200
S2207       S  0.77039615  0.90515412  0.80116290    -0.33100
S2208       S  0.70348501  0.81690938  0.91377299    -0.33100
H2209       H  0.66919140  0.81352690  0.90256963     0.28200
H2210       H  0.75403473  0.90185152  0.76732000     0.28200
H2211       H  0.71384584  0.86425978  0.78875224     0.18800
H2212       H  0.77423210  0.81946436  0.89631663     0.18800
C2213       C  0.66793644  0.66414227  0.78511114    -0.07000
C2214       C  0.69739274  0.65621608  0.76318410    -0.18100
C2215       C  0.69569914  0.64887013  0.72613590     0.10200
C2216       C  0.66923569  0.66490328  0.70451878    -0.06900
C2217       C  0.63839714  0.67213912  0.72470828    -0.18200
C2218       C  0.63688435  0.67177297  0.76370818     0.10200
S2219       S  0.72312012  0.61216617  0.71012156    -0.33100
S2220       S  0.59364388  0.68208102  0.78092913    -0.33100
H2221       H  0.59377187  0.66085839  0.81168884     0.28200
H2222       H  0.74410111  0.60874910  0.74091235     0.28200
H2223       H  0.72262015  0.65328354  0.77406951     0.18800
H2224       H  0.61448317  0.67636407  0.71012409     0.18800
C2225       C  0.71080082  0.64979927  0.84134971    -0.07000
C2226       C  0.72666900  0.66339084  0.87244029    -0.18100
C2227       C  0.76227684  0.67070872  0.87290035     0.10200
C2228       C  0.78462546  0.65454321  0.84538214    -0.06900
C2229       C  0.76929807  0.62386007  0.82989245    -0.18200
C2230       C  0.73227749  0.62119914  0.82750338     0.10200
S2231       S  0.77357948  0.70116770  0.90945623    -0.33100
S2232       S  0.71416910  0.58054249  0.81091244    -0.33100
H2233       H  0.74535483  0.56600354  0.79631258     0.28200
H2234       H  0.80904068  0.69530428  0.91411632     0.28200
H2235       H  0.71155422  0.66945381  0.89612749     0.18800
H2236       H  0.78531483  0.60112007  0.82273579     0.18800
C2237       C  0.66324153  0.78047376  0.84167975    -0.07000
C2238       C  0.69344986  0.75884018  0.84716843    -0.18100
C2239       C  0.69003662  0.72474604  0.86060105     0.10200
C2240       C  0.66505877  0.70366950  0.84302441    -0.06900
C2241       C  0.63269426  0.72237345  0.84223286    -0.18200
C2242       C  0.63130475  0.76050525  0.84546237     0.10200
S2243       S  0.68344315  0.72880875  0.90946292    -0.33100
S2244       S  0.59248597  0.77715692  0.86793615    -0.33100
H2245       H  0.61036151  0.79965914  0.89165027     0.28200
H2246       H  0.71554495  0.74502429  0.91521912     0.28200
H2247       H  0.71956887  0.76743336  0.84202510     0.18800
H2248       H  0.60900179  0.70769960  0.84501150     0.18800
C2249       C  0.64673863  0.63736170  0.84869702    -0.03000
C2250       C  0.64332080  0.64285050  0.88661285    -0.18100
C2251       C  0.62265157  0.62222332  0.90930698     0.10200
C2252       C  0.60258827  0.59506769  0.89415263    -0.06900
C2253       C  0.60621136  0.58777649  0.85697014    -0.18200
C2254       C  0.62804664  0.60754673  0.83402562     0.10200
S2255       S  0.62303813  0.63142594  0.95766999    -0.33100
S2256       S  0.62530092  0.59312706  0.78706942    -0.33100
H2257       H  0.65906286  0.59872066  0.77506398     0.28200
H2258       H  0.65312831  0.65233696  0.95796970     0.28200
H2259       H  0.65623757  0.66446918  0.89924954     0.18800
H2260       H  0.59101057  0.56661771  0.84525024     0.18800
C2261       C  0.61728586  0.90047778  0.59249450    -0.07000
C2262       C  0.63855536  0.91624163  0.61896113    -0.18100
C2263       C  0.66227146  0.89594719  0.64022311     0.10200
C2264       C  0.66316012  0.85776582  0.63720711    -0.06900
C2265       C  0.64512730  0.84394071  0.60672237    -0.18200
C2266       C  0.62212202  0.86376819  0.58565164     0.10200
S2267       S  0.69004358  0.92170495  0.66966353    -0.33100
S2268       S  0.59893453  0.83998817  0.55069358    -0.33100
H2269       H  0.60143568  0.80584417  0.56616323     0.28200
H2270       H  0.70465143  0.89392159  0.68974376     0.28200
H2271       H  0.63670840  0.94479987  0.62322635     0.18800
H2272       H  0.64836864  0.81670017  0.59813998     0.18800
C2273       C  0.85704532  0.65038092  0.64794921    -0.07000
C2274       C  0.85161790  0.64595500  0.61037236    -0.18100
C2275       C  0.87074400  0.62122009  0.58915029     0.10200
C2276       C  0.89732086  0.60033385  0.60494163    -0.06900
C2277       C  0.90443886  0.60556987  0.64154266    -0.18200
C2278       C  0.88670400  0.63158190  0.66247216     0.10200
S2279       S  0.85946243  0.61743860  0.54209343    -0.33100
S2280       S  0.90883875  0.64416300  0.70350692    -0.33100
H2281       H  0.92450599  0.61076172  0.71039412     0.28200
H2282       H  0.86738955  0.58080252  0.53914401     0.28200
H2283       H  0.83171347  0.66148823  0.59713785     0.18800
H2284       H  0.92673784  0.59172058  0.65283796     0.18800
C2285       C  0.60792310  0.60130404  0.59771259    -0.07000
C2286       C  0.60712507  0.63767801  0.59074116    -0.18100
C2287       C  0.62657422  0.66235356  0.61035799     0.10200
C2288       C  0.65109444  0.65035752  0.63764222    -0.06900
C2289       C  0.65126384  0.61317604  0.64439868    -0.18200
C2290       C  0.63054819  0.58882591  0.62497878     0.10200
S2291       S  0.61632674  0.70782510  0.59728320    -0.33100
S2292       S  0.63449975  0.54178226  0.63447262    -0.33100
H2293       H  0.66158768  0.54403463  0.65970124     0.28200
H2294       H  0.58074551  0.70300088  0.59022382     0.28200
H2295       H  0.58990859  0.64739009  0.56979733     0.18800
H2296       H  0.66810692  0.60280576  0.66505472     0.18800
C2297       C  0.84647695  0.85188152  0.86530006    -0.07000
C2298       C  0.88260343  0.84407867  0.86052820    -0.18100
C2299       C  0.90864902  0.86196840  0.87945768     0.10200
C2300       C  0.89943605  0.88978183  0.90369814    -0.06900
C2301       C  0.86425293  0.89817740  0.90907119    -0.18200
C2302       C  0.83766565  0.88012780  0.89077552     0.10200
S2303       S  0.95327384  0.84876962  0.87007930    -0.33100
S2304       S  0.79435192  0.89852486  0.89857817    -0.33100
H2305       H  0.80046446  0.91517915  0.93216870     0.28200
H2306       H  0.96620413  0.85679622  0.90458379     0.28200
H2307       H  0.89091207  0.82310752  0.84195961     0.18800
H2308       H  0.85765898  0.92021545  0.92713226     0.18800
C2309       C  0.89430423  0.60229145  0.90288494    -0.07000
C2310       C  0.90362644  0.60899048  0.86698197    -0.18100
C2311       C  0.88205214  0.62849274  0.84336833     0.10200
C2312       C  0.85010496  0.64550025  0.85675519    -0.06900
C2313       C  0.84095573  0.63596243  0.89299730    -0.18200
C2314       C  0.86200508  0.61513546  0.91558893     0.10200
S2315       S  0.89828036  0.62786870  0.79709673    -0.33100
S2316       S  0.84419826  0.60330214  0.95920316    -0.33100
H2317       H  0.86192160  0.57043780  0.96239028     0.28200
H2318       H  0.91485563  0.59414834  0.79799383     0.28200
H2319       H  0.92832537  0.59818006  0.85702577     0.18800
H2320       H  0.81543571  0.64121668  0.90375698     0.18800
C2321       C  0.59595321  0.89406421  0.88553514    -0.07000
C2322       C  0.58312247  0.87329847  0.85729098    -0.18100
C2323       C  0.60511066  0.85068651  0.83645682     0.10200
C2324       C  0.64160570  0.84769203  0.84516157    -0.06900
C2325       C  0.65383431  0.87365068  0.87015074    -0.18200
C2326       C  0.63172679  0.89531424  0.89101107     0.10200
S2327       S  0.58327342  0.82944209  0.79865229    -0.33100
S2328       S  0.65098226  0.92370112  0.92482327    -0.33100
H2329       H  0.62641734  0.95173748  0.92239705     0.28200
H2330       H  0.60443454  0.79912462  0.79406703     0.28200
H2331       H  0.55544988  0.87430302  0.85176555     0.18800
H2332       H  0.68099878  0.87779188  0.87486961     0.18800
C2333       C  0.90143232  0.90168807  0.60893403    -0.07000
C2334       C  0.90605878  0.90320365  0.64636752    -0.18100
C2335       C  0.88862846  0.88057944  0.67030796     0.10200
C2336       C  0.86240448  0.85689967  0.65681584    -0.06900
C2337       C  0.85806190  0.85624054  0.61861907    -0.18200
C2338       C  0.87666713  0.87822442  0.59495538     0.10200
S2339       S  0.90830553  0.87903131  0.71475145    -0.33100
S2340       S  0.86691449  0.87549143  0.54727312    -0.33100
H2341       H  0.87237896  0.91181158  0.54034367     0.28200
H2342       H  0.91518147  0.91569747  0.71720025     0.28200
H2343       H  0.92635195  0.92001551  0.65681853     0.18800
H2344       H  0.83953742  0.83831873  0.60673598     0.18800
loop_ 
_geom_bond_atom_site_label_1 
_geom_bond_atom_site_label_2 
_geom_bond_distance 
_geom_bond_site_symmetry_2 
_ccdc_geom_bond_type 
N1            N2   1.319       .  A
N1            N7   1.315       .  A
N1        Mn1788   2.205       .  S
N2            C9   1.355       .  A
N3            N5   1.316       .  A
N3            N4   1.320       .  A
N3        Mn1484   2.229       .  S
N4           C10   1.357       .  A
N5            N6   1.327       .  A
N5         Mn616   2.217       .  S
N6           C10   1.358       .  A
N7            N8   1.321       .  A
N7         Mn312   2.197       .  S
N8            C9   1.353       .  A
C9          C282   1.481       .  S
C10         C210   1.507       .  S
N11          N17   1.317       .  A
N11          N12   1.319       .  A
N11       Mn1213   2.187   1_455  S
N12          C20   1.347       .  A
N13          N14   1.324       .  A
N13          N15   1.319       .  A
N13         Mn19   2.222       .  S
N14          C21   1.353       .  A
N15          N16   1.324       .  A
N15         Mn41   2.225       .  S
N16          C21   1.355       .  A
N17          N18   1.321       .  A
N17       Mn1191   2.210       .  S
N18          C20   1.353       .  A
Mn19       N1468   2.235       .  S
Mn19        N300   2.204       .  S
Mn19       N1189   2.206       .  S
Mn19      Cl2094   2.547       .  S
C20         C270   1.465       .  S
C21         C249   1.484       .  S
N22          N23   1.324       .  A
N22          N28   1.315       .  A
N22         Mn30   2.196   1_545  S
N23          C31   1.353       .  A
N24          N26   1.316       .  A
N24          N25   1.320       .  A
N24       Mn1214   2.195   1_554  S
N25          C32   1.351       .  A
N26          N27   1.323       .  A
N26       Mn1202   2.226   1_545  S
N27          C32   1.357       .  A
N28          N29   1.322       .  A
N28         Mn42   2.236       .  S
N29          C31   1.360       .  A
Mn30       N1759   2.196   1_455  S
Mn30        N591   2.212       .  S
Mn30       N1198   2.221   1_465  S
Mn30        Cl43   2.564       .  S
C31         C234   1.499       .  S
C32         C225   1.482       .  S
N33          N34   1.320       .  A
N33          N39   1.317       .  A
N33        Mn627   2.199   1_545  S
N34          C44   1.351       .  A
N35          N36   1.316       .  A
N35          N37   1.315       .  A
N35        Mn335   2.192       .  S
N36          C45   1.351       .  A
N37          N38   1.324       .  A
N37       Mn1799   2.216   1_445  S
N38          C45   1.358       .  A
N39          N40   1.325       .  A
N39       Mn1507   2.223       .  S
N40          C44   1.355       .  A
Mn41       N1183   2.182       .  S
Mn41        N619   2.196       .  S
Mn41       N1795   2.218       .  S
Mn41      Cl2094   2.557       .  S
Mn42       N1196   2.177   1_455  S
Mn42        N328   2.185   1_554  S
Mn42       N1504   2.217   1_454  S
Mn42        Cl43   2.539   1_545  S
Cl43      Mn2070   2.540   1_554  S
Cl43      Mn2092   2.557   1_454  S
C44         C258   1.480       .  S
C45         C201   1.489       .  S
C46         C162   1.617       .  S
C46         C174   1.631       .  S
C46         C189   1.619       .  S
C46         C198   1.568       .  S
C47         C141   1.587       .  S
C47         C150   1.602       .  S
C47         C186   1.604       .  S
C47         C273   1.580       .  S
C48         C114   1.593       .  S
C48         C126   1.617       .  S
C48         C138   1.617       .  S
C48         C213   1.583       .  S
C49         C105   1.592       .  S
C49         C117   1.594       .  S
C49         C165   1.622       .  S
C49         C237   1.585       .  S
C50          C78   1.604       .  S
C50          C90   1.599       .  S
C50         C177   1.604       .  S
C50         C261   1.604       .  S
C51          C66   1.592       .  S
C51          C81   1.590       .  S
C51         C102   1.592       .  S
C51         C222   1.570       .  S
C52          C54   1.580       .  S
C52          C69   1.606       .  S
C52         C129   1.604       .  S
C52         C285   1.571       .  S
C53          C57   1.597       .  S
C53          C93   1.617       .  S
C53         C153   1.593       .  S
C53         C246   1.578       .  S
C54          C55   1.422       .  A
C54          C59   1.426       .  A
C55          C56   1.413       .  A
C55          H64   1.083       .  S
C56          C57   1.424       .  A
C56          S60   1.810       .  S
C57          C58   1.411       .  A
C58          C59   1.402       .  A
C58          H65   1.071       .  S
C59          S61   1.795       .  S
S60          H63   1.391       .  S
S61          H62   1.409       .  S
C66          C67   1.411       .  A
C66          C71   1.426       .  A
C67          C68   1.422       .  A
C67          H76   1.081       .  S
C68          C69   1.432       .  A
C68          S72   1.806       .  S
C69          C70   1.417       .  A
C70          C71   1.403       .  A
C70          H77   1.079       .  S
C71          S73   1.805       .  S
S72          H75   1.386       .  S
S73          H74   1.406       .  S
C78          C79   1.419       .  A
C78          C83   1.438       .  A
C79          C80   1.418       .  A
C79          H88   1.060       .  S
C80          C81   1.427       .  A
C80          S84   1.810       .  S
C81          C82   1.414       .  A
C82          C83   1.404       .  A
C82          H89   1.067       .  S
C83          S85   1.809       .  S
S84          H87   1.406       .  S
S85          H86   1.394       .  S
C90          C91   1.423       .  A
C90          C95   1.433       .  A
C91          C92   1.437       .  A
C91         H100   1.081       .  S
C92          C93   1.439       .  A
C92          S96   1.805       .  S
C93          C94   1.407       .  A
C94          C95   1.393       .  A
C94         H101   1.078       .  S
C95          S97   1.803       .  S
S96          H99   1.406       .  S
S97          H98   1.381       .  S
C102        C103   1.428       .  A
C102        C107   1.414       .  A
C103        C104   1.432       .  A
C103        H112   1.077       .  S
C104        C105   1.439       .  A
C104        S108   1.799       .  S
C105        C106   1.407       .  A
C106        C107   1.370       .  A
C106        H113   1.082       .  S
C107        S109   1.770       .  S
S108        H111   1.397       .  S
S109        H110   1.373       .  S
C114        C115   1.406       .  A
C114        C119   1.428       .  A
C115        C116   1.404       .  A
C115        H124   1.083       .  S
C116        C117   1.444       .  A
C116        S120   1.801       .  S
C117        C118   1.411       .  A
C118        C119   1.402       .  A
C118        H125   1.066       .  S
C119        S121   1.799       .  S
S120        H123   1.398       .  S
S121        H122   1.403       .  S
C126        C127   1.401       .  A
C126        C131   1.445       .  A
C127        C128   1.379       .  A
C127        H136   1.068       .  S
C128        C129   1.407       .  A
C128        S132   1.784       .  S
C129        C130   1.427       .  A
C130        C131   1.439       .  A
C130        H137   1.079       .  S
C131        S133   1.797       .  S
S132        H135   1.388       .  S
S133        H134   1.406       .  S
C138        C139   1.414       .  A
C138        C143   1.442       .  A
C139        C140   1.378       .  A
C139        H148   1.060       .  S
C140        C141   1.408       .  A
C140        S144   1.789       .  S
C141        C142   1.426       .  A
C142        C143   1.424       .  A
C142        H149   1.080       .  S
C143        S145   1.809       .  S
S144        H147   1.402       .  S
S145        H146   1.407       .  S
C150        C151   1.409       .  A
C150        C155   1.444       .  A
C151        C152   1.399       .  A
C151        H160   1.074       .  S
C152        C153   1.426       .  A
C152        S156   1.797       .  S
C153        C154   1.416       .  A
C154        C155   1.409       .  A
C154        H161   1.084       .  S
C155        S157   1.810       .  S
S156        H159   1.409       .  S
S157        H158   1.392       .  S
C162        C163   1.409       .  A
C162        C167   1.461       .  A
C163        C164   1.391       .  A
C163        H172   1.056       .  S
C164        C165   1.427       .  A
C164        S168   1.813       .  S
C165        C166   1.411       .  A
C166        C167   1.435       .  A
C166        H173   1.081       .  S
C167        S169   1.805       .  S
S168        H171   1.406       .  S
S169        H170   1.389       .  S
C174        C175   1.399       .  A
C174        C179   1.430       .  A
C175        C176   1.399       .  A
C175        H184   1.064       .  S
C176        C177   1.444       .  A
C176        S180   1.820       .  S
C177        C178   1.422       .  A
C178        C179   1.431       .  A
C178        H185   1.074       .  S
C179        S181   1.795       .  S
S180        H183   1.389       .  S
S181        H182   1.407       .  S
C186        C187   1.422       .  A
C186        C191   1.454       .  A
C187        C188   1.383       .  A
C187        H196   1.073       .  S
C188        C189   1.412       .  A
C188        S192   1.818       .  S
C189        C190   1.420       .  A
C190        C191   1.437       .  A
C190        H197   1.076       .  S
C191        S193   1.796       .  S
S192        H195   1.403       .  S
S193        H194   1.404       .  S
C198        C199   1.415       .  A
C198        C203   1.445       .  A
C199        C200   1.395       .  A
C199        H208   1.069       .  S
C200        C201   1.407       .  A
C200        S204   1.813       .  S
C201        C202   1.400       .  A
C202        C203   1.407       .  A
C202        H209   1.084       .  S
C203        S205   1.814       .  S
S204        H207   1.407       .  S
S205        H206   1.386       .  S
C210        C211   1.411       .  A
C210        C215   1.409       .  A
C211        C212   1.420       .  A
C211        H220   1.083       .  S
C212        C213   1.435       .  A
C212        S216   1.817       .  S
C213        C214   1.424       .  A
C214        C215   1.397       .  A
C214        H221   1.074       .  S
C215        S217   1.812       .  S
S216        H219   1.396       .  S
S217        H218   1.407       .  S
C222        C223   1.411       .  A
C222        C227   1.441       .  A
C223        C224   1.400       .  A
C223        H232   1.077       .  S
C224        C225   1.406       .  A
C224        S228   1.794       .  S
C225        C226   1.392       .  A
C226        C227   1.404       .  A
C226        H233   1.083       .  S
C227        S229   1.807       .  S
S228        H231   1.407       .  S
S229        H230   1.407       .  S
C234        C235   1.389       .  A
C234        C239   1.412       .  A
C235        C236   1.400       .  A
C235        H244   1.084       .  S
C236        C237   1.453       .  A
C236        S240   1.814       .  S
C237        C238   1.419       .  A
C238        C239   1.416       .  A
C238        H245   1.075       .  S
C239        S241   1.807       .  S
S240        H243   1.409       .  S
S241        H242   1.407       .  S
C246        C247   1.422       .  A
C246        C251   1.446       .  A
C247        C248   1.403       .  A
C247        H256   1.081       .  S
C248        C249   1.406       .  A
C248        S252   1.805       .  S
C249        C250   1.394       .  A
C250        C251   1.411       .  A
C250        H257   1.083       .  S
C251        S253   1.809       .  S
S252        H255   1.404       .  S
S253        H254   1.407       .  S
C258        C259   1.389       .  A
C258        C263   1.396       .  A
C259        C260   1.406       .  A
C259        H268   1.084       .  S
C260        C261   1.455       .  A
C260        S264   1.807       .  S
C261        C262   1.427       .  A
C262        C263   1.400       .  A
C262        H269   1.070       .  S
C263        S265   1.799       .  S
S264        H267   1.408       .  S
S265        H266   1.406       .  S
C270        C271   1.398       .  A
C270        C275   1.393       .  A
C271        C272   1.408       .  A
C271        H280   1.084       .  S
C272        C273   1.443       .  A
C272        S276   1.820       .  S
C273        C274   1.427       .  A
C274        C275   1.389       .  A
C274        H281   1.074       .  S
C275        S277   1.807       .  S
S276        H279   1.396       .  S
S277        H278   1.405       .  S
C282        C283   1.393       .  A
C282        C287   1.406       .  A
C283        C284   1.400       .  A
C283        H292   1.083       .  S
C284        C285   1.445       .  A
C284        S288   1.816       .  S
C285        C286   1.419       .  A
C286        C287   1.400       .  A
C286        H293   1.082       .  S
C287        S289   1.803       .  S
S288        H291   1.407       .  S
S289        H290   1.407       .  S
N294        N295   1.318       .  A
N294        N300   1.316       .  A
N294      Mn2081   2.203       .  S
N295        C302   1.354       .  A
N296        N298   1.317       .  A
N296        N297   1.319       .  A
N296      Mn1191   2.233       .  S
N297        C303   1.356       .  A
N298        N299   1.328       .  A
N298       Mn909   2.221       .  S
N299        C303   1.358       .  A
N300        N301   1.322       .  A
N301        C302   1.354       .  A
C302        C575   1.483       .  S
C303        C503   1.507       .  S
N304        N310   1.317       .  A
N304        N305   1.320       .  A
N304      Mn1506   2.196   1_455  S
N305        C313   1.350       .  A
N306        N307   1.325       .  A
N306        N308   1.319       .  A
N306       Mn312   2.227   1_556  S
N307        C314   1.354       .  A
N308        N309   1.324       .  A
N308       Mn334   2.225       .  S
N309        C314   1.355       .  A
N310        N311   1.320       .  A
N310      Mn1484   2.202   1_556  S
N311        C313   1.351       .  A
Mn312      N1175   2.236       .  S
Mn312      N1482   2.194   1_554  S
Mn312     Cl1801   2.543       .  S
C313        C563   1.465       .  S
C314        C542   1.488       .  S
N315        N316   1.323       .  A
N315        N321   1.315       .  A
N315       Mn323   2.196   1_545  S
N316        C324   1.353       .  A
N317        N319   1.315       .  A
N317        N318   1.318       .  A
N317      Mn1507   2.181       .  S
N318        C325   1.349       .  A
N319        N320   1.323       .  A
N319      Mn1495   2.226   1_545  S
N320        C325   1.358       .  A
N321        N322   1.322       .  A
N321       Mn335   2.230       .  S
N322        C324   1.359       .  A
Mn323      N2052   2.204   1_455  S
Mn323       N884   2.219       .  S
Mn323      N1491   2.223   1_465  S
Mn323      Cl336   2.565       .  S
C324        C527   1.496       .  S
C325        C518   1.479       .  S
N326        N327   1.321       .  A
N326        N332   1.317       .  A
N326       Mn920   2.203   1_545  S
N327        C337   1.352       .  A
N328        N329   1.316       .  A
N328        N330   1.315       .  A
N329        C338   1.350       .  A
N330        N331   1.322       .  A
N330      Mn2092   2.216   1_445  S
N331        C338   1.357       .  A
N332        N333   1.325       .  A
N332      Mn1214   2.228       .  S
N333        C337   1.356       .  A
Mn334      N1476   2.184       .  S
Mn334       N912   2.200       .  S
Mn334      N2088   2.213       .  S
Mn334     Cl1801   2.557   1_556  S
Mn335      N1489   2.189   1_455  S
Mn335      N1211   2.218   1_455  S
Mn335      Cl336   2.539   1_545  S
Cl336     Mn1777   2.542       .  S
Cl336     Mn1799   2.555   1_455  S
C337        C551   1.485       .  S
C338        C494   1.488       .  S
C339        C455   1.612       .  S
C339        C467   1.630       .  S
C339        C482   1.618       .  S
C339        C491   1.565       .  S
C340        C434   1.580       .  S
C340        C443   1.602       .  S
C340        C479   1.602       .  S
C340        C566   1.578       .  S
C341        C407   1.592       .  S
C341        C419   1.618       .  S
C341        C431   1.616       .  S
C341        C506   1.590       .  S
C342        C398   1.592       .  S
C342        C410   1.592       .  S
C342        C458   1.622       .  S
C342        C530   1.582       .  S
C343        C371   1.604       .  S
C343        C383   1.600       .  S
C343        C470   1.606       .  S
C343        C554   1.605       .  S
C344        C359   1.589       .  S
C344        C374   1.589       .  S
C344        C395   1.592       .  S
C344        C515   1.566       .  S
C345        C347   1.586       .  S
C345        C362   1.605       .  S
C345        C422   1.606       .  S
C345        C578   1.571       .  S
C346        C350   1.600       .  S
C346        C386   1.619       .  S
C346        C446   1.596       .  S
C346        C539   1.583       .  S
C347        C348   1.422       .  A
C347        C352   1.428       .  A
C348        C349   1.415       .  A
C348        H357   1.083       .  S
C349        C350   1.424       .  A
C349        S353   1.810       .  S
C350        C351   1.413       .  A
C351        C352   1.406       .  A
C351        H358   1.073       .  S
C352        S354   1.794       .  S
S353        H356   1.392       .  S
S354        H355   1.409       .  S
C359        C360   1.411       .  A
C359        C364   1.423       .  A
C360        C361   1.421       .  A
C360        H369   1.081       .  S
C361        C362   1.432       .  A
C361        S365   1.806       .  S
C362        C363   1.418       .  A
C363        C364   1.401       .  A
C363        H370   1.078       .  S
C364        S366   1.805       .  S
S365        H368   1.387       .  S
S366        H367   1.407       .  S
C371        C372   1.420       .  A
C371        C376   1.436       .  A
C372        C373   1.417       .  A
C372        H381   1.060       .  S
C373        C374   1.426       .  A
C373        S377   1.811       .  S
C374        C375   1.415       .  A
C375        C376   1.403       .  A
C375        H382   1.067       .  S
C376        S378   1.807       .  S
S377        H380   1.406       .  S
S378        H379   1.394       .  S
C383        C384   1.424       .  A
C383        C388   1.433       .  A
C384        C385   1.439       .  A
C384        H393   1.081       .  S
C385        C386   1.439       .  A
C385        S389   1.804       .  S
C386        C387   1.408       .  A
C387        C388   1.394       .  A
C387        H394   1.076       .  S
C388        S390   1.805       .  S
S389        H392   1.406       .  S
S390        H391   1.379       .  S
C395        C396   1.427       .  A
C395        C400   1.413       .  A
C396        C397   1.432       .  A
C396        H405   1.077       .  S
C397        C398   1.439       .  A
C397        S401   1.799       .  S
C398        C399   1.407       .  A
C399        C400   1.368       .  A
C399        H406   1.085       .  S
C400        S402   1.766       .  S
S401        H404   1.398       .  S
S402        H403   1.373       .  S
C407        C408   1.405       .  A
C407        C412   1.432       .  A
C408        C409   1.403       .  A
C408        H417   1.083       .  S
C409        C410   1.443       .  A
C409        S413   1.801       .  S
C410        C411   1.409       .  A
C411        C412   1.401       .  A
C411        H418   1.067       .  S
C412        S414   1.804       .  S
S413        H416   1.396       .  S
S414        H415   1.399       .  S
C419        C420   1.398       .  A
C419        C424   1.443       .  A
C420        C421   1.378       .  A
C420        H429   1.067       .  S
C421        C422   1.408       .  A
C421        S425   1.782       .  S
C422        C423   1.430       .  A
C423        C424   1.442       .  A
C423        H430   1.079       .  S
C424        S426   1.798       .  S
S425        H428   1.389       .  S
S426        H427   1.406       .  S
C431        C432   1.419       .  A
C431        C436   1.445       .  A
C432        C433   1.375       .  A
C432        H441   1.060       .  S
C433        C434   1.401       .  A
C433        S437   1.792       .  S
C434        C435   1.423       .  A
C435        C436   1.424       .  A
C435        H442   1.080       .  S
C436        S438   1.806       .  S
S437        H440   1.406       .  S
S438        H439   1.407       .  S
C443        C444   1.408       .  A
C443        C448   1.441       .  A
C444        C445   1.399       .  A
C444        H453   1.073       .  S
C445        C446   1.428       .  A
C445        S449   1.797       .  S
C446        C447   1.418       .  A
C447        C448   1.410       .  A
C447        H454   1.084       .  S
C448        S450   1.810       .  S
S449        H452   1.409       .  S
S450        H451   1.390       .  S
C455        C456   1.407       .  A
C455        C460   1.460       .  A
C456        C457   1.390       .  A
C456        H465   1.057       .  S
C457        C458   1.425       .  A
C457        S461   1.812       .  S
C458        C459   1.413       .  A
C459        C460   1.436       .  A
C459        H466   1.081       .  S
C460        S462   1.806       .  S
S461        H464   1.405       .  S
S462        H463   1.388       .  S
C467        C468   1.399       .  A
C467        C472   1.432       .  A
C468        C469   1.404       .  A
C468        H477   1.067       .  S
C469        C470   1.445       .  A
C469        S473   1.821       .  S
C470        C471   1.420       .  A
C471        C472   1.430       .  A
C471        H478   1.075       .  S
C472        S474   1.794       .  S
S473        H476   1.387       .  S
S474        H475   1.407       .  S
C479        C480   1.421       .  A
C479        C484   1.455       .  A
C480        C481   1.383       .  A
C480        H489   1.074       .  S
C481        C482   1.410       .  A
C481        S485   1.817       .  S
C482        C483   1.424       .  A
C483        C484   1.440       .  A
C483        H490   1.077       .  S
C484        S486   1.797       .  S
S485        H488   1.404       .  S
S486        H487   1.403       .  S
C491        C492   1.416       .  A
C491        C496   1.445       .  A
C492        C493   1.395       .  A
C492        H501   1.072       .  S
C493        C494   1.409       .  A
C493        S497   1.812       .  S
C494        C495   1.400       .  A
C495        C496   1.405       .  A
C495        H502   1.084       .  S
C496        S498   1.816       .  S
S497        H500   1.407       .  S
S498        H499   1.383       .  S
C503        C504   1.413       .  A
C503        C508   1.409       .  A
C504        C505   1.424       .  A
C504        H513   1.083       .  S
C505        C506   1.437       .  A
C505        S509   1.817       .  S
C506        C507   1.425       .  A
C507        C508   1.393       .  A
C507        H514   1.072       .  S
C508        S510   1.815       .  S
S509        H512   1.396       .  S
S510        H511   1.408       .  S
C515        C516   1.410       .  A
C515        C520   1.441       .  A
C516        C517   1.400       .  A
C516        H525   1.078       .  S
C517        C518   1.408       .  A
C517        S521   1.795       .  S
C518        C519   1.390       .  A
C519        C520   1.400       .  A
C519        H526   1.084       .  S
C520        S522   1.807       .  S
S521        H524   1.407       .  S
S522        H523   1.407       .  S
C527        C528   1.391       .  A
C527        C532   1.411       .  A
C528        C529   1.401       .  A
C528        H537   1.083       .  S
C529        C530   1.451       .  A
C529        S533   1.814       .  S
C530        C531   1.417       .  A
C531        C532   1.413       .  A
C531        H538   1.074       .  S
C532        S534   1.807       .  S
S533        H536   1.408       .  S
S534        H535   1.407       .  S
C539        C540   1.423       .  A
C539        C544   1.448       .  A
C540        C541   1.406       .  A
C540        H549   1.081       .  S
C541        C542   1.407       .  A
C541        S545   1.804       .  S
C542        C543   1.393       .  A
C543        C544   1.411       .  A
C543        H550   1.083       .  S
C544        S546   1.808       .  S
S545        H548   1.405       .  S
S546        H547   1.407       .  S
C551        C552   1.391       .  A
C551        C556   1.397       .  A
C552        C553   1.410       .  A
C552        H561   1.084       .  S
C553        C554   1.455       .  A
C553        S557   1.806       .  S
C554        C555   1.423       .  A
C555        C556   1.400       .  A
C555        H562   1.068       .  S
C556        S558   1.797       .  S
S557        H560   1.408       .  S
S558        H559   1.406       .  S
C563        C564   1.397       .  A
C563        C568   1.395       .  A
C564        C565   1.407       .  A
C564        H573   1.084       .  S
C565        C566   1.441       .  A
C565        S569   1.818       .  S
C566        C567   1.427       .  A
C567        C568   1.390       .  A
C567        H574   1.074       .  S
C568        S570   1.809       .  S
S569        H572   1.395       .  S
S570        H571   1.404       .  S
C575        C576   1.395       .  A
C575        C580   1.407       .  A
C576        C577   1.400       .  A
C576        H585   1.083       .  S
C577        C578   1.444       .  A
C577        S581   1.814       .  S
C578        C579   1.420       .  A
C579        C580   1.401       .  A
C579        H586   1.081       .  S
C580        S582   1.803       .  S
S581        H584   1.408       .  S
S582        H583   1.407       .  S
N587        N588   1.318       .  A
N587        N593   1.315       .  A
N587      Mn1202   2.200       .  S
N588        C595   1.353       .  A
N589        N591   1.316       .  A
N589        N590   1.319       .  A
N589      Mn2070   2.231   1_554  S
N590        C596   1.356       .  A
N591        N592   1.327       .  A
N592        C596   1.357       .  A
N593        N594   1.321       .  A
N593       Mn898   2.197   1_554  S
N594        C595   1.353       .  A
C595        C868   1.478       .  S
C596        C796   1.504       .  S
N597        N603   1.317       .  A
N597        N598   1.319       .  A
N597      Mn1799   2.189   1_455  S
N598        C606   1.348       .  A
N599        N600   1.323       .  A
N599        N601   1.319       .  A
N599       Mn605   2.217       .  S
N600        C607   1.352       .  A
N601        N602   1.324       .  A
N601       Mn627   2.222       .  S
N602        C607   1.355       .  A
N603        N604   1.320       .  A
N603      Mn1777   2.202       .  S
N604        C606   1.352       .  A
Mn605      N2054   2.232       .  S
Mn605       N886   2.196       .  S
Mn605      N1775   2.199       .  S
Mn605     Cl1508   2.540       .  S
C606        C856   1.462       .  S
C607        C835   1.482       .  S
N608        N609   1.324       .  A
N608        N614   1.316       .  A
N608       Mn616   2.197       .  S
N609        C617   1.353       .  A
N610        N612   1.316       .  A
N610        N611   1.317       .  A
N610      Mn1800   2.179       .  S
N611        C618   1.348       .  A
N612        N613   1.324       .  A
N612      Mn1788   2.230       .  S
N613        C618   1.359       .  A
N614        N615   1.323       .  A
N614       Mn628   2.243       .  S
N615        C617   1.361       .  A
Mn616      N1173   2.206   1_455  S
Mn616      N1784   2.223   1_455  S
Mn616      Cl629   2.565       .  S
C617        C820   1.502       .  S
C618        C811   1.478       .  S
N619        N620   1.320       .  A
N619        N625   1.317       .  A
N620        C630   1.351       .  A
N621        N622   1.318       .  A
N621        N623   1.316       .  A
N621       Mn921   2.195       .  S
N622        C631   1.351       .  A
N623        N624   1.324       .  A
N623      Mn1213   2.222   1_455  S
N624        C631   1.358       .  A
N625        N626   1.324       .  A
N625      Mn2093   2.222       .  S
N626        C630   1.355       .  A
Mn627      N1769   2.184       .  S
Mn627      N1209   2.212   1_565  S
Mn627     Cl1508   2.554       .  S
Mn628      N1782   2.189   1_455  S
Mn628       N914   2.195   1_554  S
Mn628      N2090   2.227   1_454  S
Mn628      Cl629   2.543       .  S
Cl629     Mn1484   2.545       .  S
Cl629     Mn1506   2.558   1_454  S
C630        C844   1.480       .  S
C631        C787   1.492       .  S
C632        C748   1.616       .  S
C632        C760   1.627       .  S
C632        C775   1.618       .  S
C632        C784   1.568       .  S
C633        C727   1.581       .  S
C633        C736   1.603       .  S
C633        C772   1.602       .  S
C633        C859   1.573       .  S
C634        C700   1.590       .  S
C634        C712   1.614       .  S
C634        C724   1.616       .  S
C634        C799   1.590       .  S
C635        C691   1.592       .  S
C635        C703   1.592       .  S
C635        C751   1.625       .  S
C635        C823   1.586       .  S
C636        C664   1.601       .  S
C636        C676   1.597       .  S
C636        C763   1.603       .  S
C636        C847   1.601       .  S
C637        C652   1.591       .  S
C637        C667   1.586       .  S
C637        C688   1.592       .  S
C637        C808   1.565       .  S
C638        C640   1.585       .  S
C638        C655   1.597       .  S
C638        C715   1.602       .  S
C638        C871   1.567       .  S
C639        C643   1.602       .  S
C639        C679   1.617       .  S
C639        C739   1.595       .  S
C639        C832   1.577       .  S
C640        C641   1.421       .  A
C640        C645   1.427       .  A
C641        C642   1.415       .  A
C641        H650   1.083       .  S
C642        C643   1.427       .  A
C642        S646   1.810       .  S
C643        C644   1.413       .  A
C644        C645   1.403       .  A
C644        H651   1.073       .  S
C645        S647   1.795       .  S
S646        H649   1.391       .  S
S647        H648   1.409       .  S
C652        C653   1.414       .  A
C652        C657   1.425       .  A
C653        C654   1.426       .  A
C653        H662   1.080       .  S
C654        C655   1.424       .  A
C654        S658   1.809       .  S
C655        C656   1.415       .  A
C656        C657   1.401       .  A
C656        H663   1.078       .  S
C657        S659   1.804       .  S
S658        H661   1.407       .  S
S659        H660   1.407       .  S
C664        C665   1.419       .  A
C664        C669   1.437       .  A
C665        C666   1.415       .  A
C665        H674   1.059       .  S
C666        C667   1.427       .  A
C666        S670   1.811       .  S
C667        C668   1.413       .  A
C668        C669   1.403       .  A
C668        H675   1.067       .  S
C669        S671   1.808       .  S
S670        H673   1.406       .  S
S671        H672   1.395       .  S
C676        C677   1.422       .  A
C676        C681   1.433       .  A
C677        C678   1.438       .  A
C677        H686   1.081       .  S
C678        C679   1.440       .  A
C678        S682   1.805       .  S
C679        C680   1.407       .  A
C680        C681   1.392       .  A
C680        H687   1.077       .  S
C681        S683   1.805       .  S
S682        H685   1.406       .  S
S683        H684   1.380       .  S
C688        C689   1.427       .  A
C688        C693   1.414       .  A
C689        C690   1.432       .  A
C689        H698   1.077       .  S
C690        C691   1.439       .  A
C690        S694   1.799       .  S
C691        C692   1.408       .  A
C692        C693   1.369       .  A
C692        H699   1.083       .  S
C693        S695   1.771       .  S
S694        H697   1.397       .  S
S695        H696   1.372       .  S
C700        C701   1.405       .  A
C700        C705   1.431       .  A
C701        C702   1.402       .  A
C701        H710   1.083       .  S
C702        C703   1.444       .  A
C702        S706   1.802       .  S
C703        C704   1.410       .  A
C704        C705   1.400       .  A
C704        H711   1.066       .  S
C705        S707   1.805       .  S
S706        H709   1.394       .  S
S707        H708   1.399       .  S
C712        C713   1.398       .  A
C712        C717   1.441       .  A
C713        C714   1.376       .  A
C713        H722   1.067       .  S
C714        C715   1.406       .  A
C714        S718   1.783       .  S
C715        C716   1.431       .  A
C716        C717   1.440       .  A
C716        H723   1.078       .  S
C717        S719   1.799       .  S
S718        H721   1.388       .  S
S719        H720   1.407       .  S
C724        C725   1.418       .  A
C724        C729   1.443       .  A
C725        C726   1.375       .  A
C725        H734   1.057       .  S
C726        C727   1.402       .  A
C726        S730   1.792       .  S
C727        C728   1.425       .  A
C728        C729   1.424       .  A
C728        H735   1.080       .  S
C729        S731   1.804       .  S
S730        H733   1.405       .  S
S731        H732   1.408       .  S
C736        C737   1.409       .  A
C736        C741   1.440       .  A
C737        C738   1.400       .  A
C737        H746   1.073       .  S
C738        C739   1.426       .  A
C738        S742   1.796       .  S
C739        C740   1.418       .  A
C740        C741   1.411       .  A
C740        H747   1.084       .  S
C741        S743   1.809       .  S
S742        H745   1.409       .  S
S743        H744   1.390       .  S
C748        C749   1.408       .  A
C748        C753   1.460       .  A
C749        C750   1.392       .  A
C749        H758   1.056       .  S
C750        C751   1.426       .  A
C750        S754   1.812       .  S
C751        C752   1.412       .  A
C752        C753   1.435       .  A
C752        H759   1.080       .  S
C753        S755   1.805       .  S
S754        H757   1.406       .  S
S755        H756   1.388       .  S
C760        C761   1.397       .  A
C760        C765   1.429       .  A
C761        C762   1.401       .  A
C761        H770   1.066       .  S
C762        C763   1.446       .  A
C762        S766   1.823       .  S
C763        C764   1.421       .  A
C764        C765   1.430       .  A
C764        H771   1.076       .  S
C765        S767   1.794       .  S
S766        H769   1.388       .  S
S767        H768   1.407       .  S
C772        C773   1.420       .  A
C772        C777   1.456       .  A
C773        C774   1.384       .  A
C773        H782   1.074       .  S
C774        C775   1.413       .  A
C774        S778   1.817       .  S
C775        C776   1.420       .  A
C776        C777   1.437       .  A
C776        H783   1.077       .  S
C777        S779   1.797       .  S
S778        H781   1.404       .  S
S779        H780   1.403       .  S
C784        C785   1.416       .  A
C784        C789   1.445       .  A
C785        C786   1.398       .  A
C785        H794   1.072       .  S
C786        C787   1.409       .  A
C786        S790   1.812       .  S
C787        C788   1.400       .  A
C788        C789   1.407       .  A
C788        H795   1.084       .  S
C789        S791   1.814       .  S
S790        H793   1.407       .  S
S791        H792   1.385       .  S
C796        C797   1.412       .  A
C796        C801   1.408       .  A
C797        C798   1.422       .  A
C797        H806   1.084       .  S
C798        C799   1.438       .  A
C798        S802   1.817       .  S
C799        C800   1.426       .  A
C800        C801   1.393       .  A
C800        H807   1.071       .  S
C801        S803   1.816       .  S
S802        H805   1.396       .  S
S803        H804   1.407       .  S
C808        C809   1.409       .  A
C808        C813   1.442       .  A
C809        C810   1.399       .  A
C809        H818   1.077       .  S
C810        C811   1.408       .  A
C810        S814   1.796       .  S
C811        C812   1.391       .  A
C812        C813   1.402       .  A
C812        H819   1.083       .  S
C813        S815   1.811       .  S
S814        H817   1.407       .  S
S815        H816   1.406       .  S
C820        C821   1.390       .  A
C820        C825   1.414       .  A
C821        C822   1.400       .  A
C821        H830   1.083       .  S
C822        C823   1.453       .  A
C822        S826   1.814       .  S
C823        C824   1.418       .  A
C824        C825   1.417       .  A
C824        H831   1.076       .  S
C825        S827   1.807       .  S
S826        H829   1.409       .  S
S827        H828   1.407       .  S
C832        C833   1.422       .  A
C832        C837   1.447       .  A
C833        C834   1.403       .  A
C833        H842   1.082       .  S
C834        C835   1.405       .  A
C834        S838   1.804       .  S
C835        C836   1.392       .  A
C836        C837   1.409       .  A
C836        H843   1.084       .  S
C837        S839   1.808       .  S
S838        H841   1.405       .  S
S839        H840   1.408       .  S
C844        C845   1.389       .  A
C844        C849   1.395       .  A
C845        C846   1.408       .  A
C845        H854   1.084       .  S
C846        C847   1.456       .  A
C846        S850   1.807       .  S
C847        C848   1.422       .  A
C848        C849   1.397       .  A
C848        H855   1.066       .  S
C849        S851   1.796       .  S
S850        H853   1.408       .  S
S851        H852   1.405       .  S
C856        C857   1.397       .  A
C856        C861   1.393       .  A
C857        C858   1.406       .  A
C857        H866   1.084       .  S
C858        C859   1.442       .  A
C858        S862   1.820       .  S
C859        C860   1.425       .  A
C860        C861   1.389       .  A
C860        H867   1.075       .  S
C861        S863   1.806       .  S
S862        H865   1.395       .  S
S863        H864   1.406       .  S
C868        C869   1.394       .  A
C868        C873   1.406       .  A
C869        C870   1.399       .  A
C869        H878   1.084       .  S
C870        C871   1.441       .  A
C870        S874   1.811       .  S
C871        C872   1.419       .  A
C872        C873   1.399       .  A
C872        H879   1.082       .  S
C873        S875   1.803       .  S
S874        H877   1.408       .  S
S875        H876   1.407       .  S
N880        N881   1.318       .  A
N880        N886   1.315       .  A
N880      Mn1495   2.198       .  S
N881        C888   1.353       .  A
N882        N884   1.316       .  A
N882        N883   1.319       .  A
N882      Mn1777   2.227       .  S
N883        C889   1.356       .  A
N884        N885   1.328       .  A
N885        C889   1.358       .  A
N886        N887   1.321       .  A
N887        C888   1.353       .  A
C888       C1161   1.478       .  S
C889       C1089   1.506       .  S
N890        N896   1.317       .  A
N890        N891   1.318       .  A
N890      Mn2092   2.183   1_455  S
N891        C899   1.346       .  A
N892        N893   1.324       .  A
N892        N894   1.319       .  A
N892       Mn898   2.223       .  S
N893        C900   1.353       .  A
N894        N895   1.324       .  A
N894       Mn920   2.223       .  S
N895        C900   1.355       .  A
N896        N897   1.320       .  A
N896      Mn2070   2.200       .  S
N897        C899   1.351       .  A
Mn898      N1761   2.235   1_556  S
Mn898      N2068   2.197       .  S
Mn898     Cl1215   2.546       .  S
C899       C1149   1.458       .  S
C900       C1128   1.483       .  S
N901        N902   1.325       .  A
N901        N907   1.315       .  A
N901       Mn909   2.204       .  S
N902        C910   1.355       .  A
N903        N905   1.316       .  A
N903        N904   1.320       .  A
N903      Mn2093   2.194       .  S
N904        C911   1.351       .  A
N905        N906   1.324       .  A
N905      Mn2081   2.230       .  S
N906        C911   1.358       .  A
N907        N908   1.323       .  A
N907       Mn921   2.235       .  S
N908        C910   1.360       .  A
Mn909      N1466   2.203   1_455  S
Mn909      N2077   2.233   1_455  S
Mn909      Cl922   2.568       .  S
C910       C1113   1.502       .  S
C911       C1104   1.484       .  S
N912        N913   1.320       .  A
N912        N918   1.317       .  A
N913        C923   1.351       .  A
N914        N915   1.318       .  A
N914        N916   1.316       .  A
N915        C924   1.352       .  A
N916        N917   1.324       .  A
N916      Mn1506   2.225   1_455  S
N917        C924   1.358       .  A
N918        N919   1.326       .  A
N918      Mn1800   2.232   1_556  S
N919        C923   1.357       .  A
Mn920      N2062   2.187       .  S
Mn920      N1502   2.213   1_565  S
Mn920     Cl1215   2.556       .  S
Mn921      N2075   2.189   1_455  S
Mn921      N1797   2.216   1_455  S
Mn921      Cl922   2.543       .  S
Cl922     Mn1191   2.545       .  S
Cl922     Mn1213   2.559   1_455  S
C923       C1137   1.485       .  S
C924       C1080   1.494       .  S
C925       C1041   1.611       .  S
C925       C1053   1.630       .  S
C925       C1068   1.614       .  S
C925       C1077   1.569       .  S
C926       C1020   1.579       .  S
C926       C1029   1.600       .  S
C926       C1065   1.602       .  S
C926       C1152   1.572       .  S
C927        C993   1.590       .  S
C927       C1005   1.614       .  S
C927       C1017   1.617       .  S
C927       C1092   1.591       .  S
C928        C984   1.594       .  S
C928        C996   1.593       .  S
C928       C1044   1.622       .  S
C928       C1116   1.587       .  S
C929        C957   1.606       .  S
C929        C969   1.600       .  S
C929       C1056   1.607       .  S
C929       C1140   1.608       .  S
C930        C945   1.590       .  S
C930        C960   1.591       .  S
C930        C981   1.594       .  S
C930       C1101   1.570       .  S
C931        C933   1.585       .  S
C931        C948   1.604       .  S
C931       C1008   1.606       .  S
C931       C1164   1.568       .  S
C932        C936   1.600       .  S
C932        C972   1.618       .  S
C932       C1032   1.591       .  S
C932       C1125   1.578       .  S
C933        C934   1.422       .  A
C933        C938   1.428       .  A
C934        C935   1.415       .  A
C934        H943   1.083       .  S
C935        C936   1.424       .  A
C935        S939   1.810       .  S
C936        C937   1.411       .  A
C937        C938   1.405       .  A
C937        H944   1.072       .  S
C938        S940   1.795       .  S
S939        H942   1.390       .  S
S940        H941   1.409       .  S
C945        C946   1.411       .  A
C945        C950   1.425       .  A
C946        C947   1.421       .  A
C946        H955   1.081       .  S
C947        C948   1.431       .  A
C947        S951   1.806       .  S
C948        C949   1.417       .  A
C949        C950   1.402       .  A
C949        H956   1.078       .  S
C950        S952   1.805       .  S
S951        H954   1.387       .  S
S952        H953   1.407       .  S
C957        C958   1.419       .  A
C957        C962   1.438       .  A
C958        C959   1.419       .  A
C958        H967   1.061       .  S
C959        C960   1.427       .  A
C959        S963   1.810       .  S
C960        C961   1.415       .  A
C961        C962   1.405       .  A
C961        H968   1.068       .  S
C962        S964   1.808       .  S
S963        H966   1.406       .  S
S964        H965   1.394       .  S
C969        C970   1.423       .  A
C969        C974   1.434       .  A
C970        C971   1.437       .  A
C970        H979   1.081       .  S
C971        C972   1.439       .  A
C971        S975   1.805       .  S
C972        C973   1.407       .  A
C973        C974   1.394       .  A
C973        H980   1.076       .  S
C974        S976   1.804       .  S
S975        H978   1.407       .  S
S976        H977   1.381       .  S
C981        C982   1.428       .  A
C981        C986   1.414       .  A
C982        C983   1.432       .  A
C982        H991   1.077       .  S
C983        C984   1.439       .  A
C983        S987   1.799       .  S
C984        C985   1.409       .  A
C985        C986   1.371       .  A
C985        H992   1.085       .  S
C986        S988   1.769       .  S
S987        H990   1.397       .  S
S988        H989   1.369       .  S
C993        C994   1.405       .  A
C993        C998   1.432       .  A
C994        C995   1.403       .  A
C994       H1003   1.083       .  S
C995        C996   1.443       .  A
C995        S999   1.801       .  S
C996        C997   1.410       .  A
C997        C998   1.402       .  A
C997       H1004   1.067       .  S
C998       S1000   1.806       .  S
S999       H1002   1.396       .  S
S1000      H1001   1.398       .  S
C1005      C1006   1.397       .  A
C1005      C1010   1.441       .  A
C1006      C1007   1.377       .  A
C1006      H1015   1.066       .  S
C1007      C1008   1.407       .  A
C1007      S1011   1.782       .  S
C1008      C1009   1.432       .  A
C1009      C1010   1.441       .  A
C1009      H1016   1.078       .  S
C1010      S1012   1.799       .  S
S1011      H1014   1.389       .  S
S1012      H1013   1.407       .  S
C1017      C1018   1.422       .  A
C1017      C1022   1.446       .  A
C1018      C1019   1.375       .  A
C1018      H1027   1.060       .  S
C1019      C1020   1.398       .  A
C1019      S1023   1.793       .  S
C1020      C1021   1.422       .  A
C1021      C1022   1.424       .  A
C1021      H1028   1.081       .  S
C1022      S1024   1.804       .  S
S1023      H1026   1.407       .  S
S1024      H1025   1.408       .  S
C1029      C1030   1.408       .  A
C1029      C1034   1.442       .  A
C1030      C1031   1.398       .  A
C1030      H1039   1.073       .  S
C1031      C1032   1.426       .  A
C1031      S1035   1.797       .  S
C1032      C1033   1.416       .  A
C1033      C1034   1.408       .  A
C1033      H1040   1.084       .  S
C1034      S1036   1.811       .  S
S1035      H1038   1.409       .  S
S1036      H1037   1.391       .  S
C1041      C1042   1.406       .  A
C1041      C1046   1.458       .  A
C1042      C1043   1.389       .  A
C1042      H1051   1.056       .  S
C1043      C1044   1.426       .  A
C1043      S1047   1.813       .  S
C1044      C1045   1.413       .  A
C1045      C1046   1.436       .  A
C1045      H1052   1.080       .  S
C1046      S1048   1.806       .  S
S1047      H1050   1.406       .  S
S1048      H1049   1.388       .  S
C1053      C1054   1.399       .  A
C1053      C1058   1.430       .  A
C1054      C1055   1.405       .  A
C1054      H1063   1.068       .  S
C1055      C1056   1.445       .  A
C1055      S1059   1.821       .  S
C1056      C1057   1.421       .  A
C1057      C1058   1.430       .  A
C1057      H1064   1.074       .  S
C1058      S1060   1.794       .  S
S1059      H1062   1.387       .  S
S1060      H1061   1.406       .  S
C1065      C1066   1.420       .  A
C1065      C1070   1.457       .  A
C1066      C1067   1.383       .  A
C1066      H1075   1.075       .  S
C1067      C1068   1.408       .  A
C1067      S1071   1.813       .  S
C1068      C1069   1.423       .  A
C1069      C1070   1.440       .  A
C1069      H1076   1.078       .  S
C1070      S1072   1.796       .  S
S1071      H1074   1.406       .  S
S1072      H1073   1.403       .  S
C1077      C1078   1.416       .  A
C1077      C1082   1.446       .  A
C1078      C1079   1.399       .  A
C1078      H1087   1.074       .  S
C1079      C1080   1.410       .  A
C1079      S1083   1.811       .  S
C1080      C1081   1.400       .  A
C1081      C1082   1.407       .  A
C1081      H1088   1.084       .  S
C1082      S1084   1.815       .  S
S1083      H1086   1.407       .  S
S1084      H1085   1.385       .  S
C1089      C1090   1.412       .  A
C1089      C1094   1.409       .  A
C1090      C1091   1.423       .  A
C1090      H1099   1.083       .  S
C1091      C1092   1.437       .  A
C1091      S1095   1.816       .  S
C1092      C1093   1.425       .  A
C1093      C1094   1.393       .  A
C1093      H1100   1.073       .  S
C1094      S1096   1.814       .  S
S1095      H1098   1.396       .  S
S1096      H1097   1.408       .  S
C1101      C1102   1.410       .  A
C1101      C1106   1.442       .  A
C1102      C1103   1.400       .  A
C1102      H1111   1.077       .  S
C1103      C1104   1.406       .  A
C1103      S1107   1.791       .  S
C1104      C1105   1.392       .  A
C1105      C1106   1.404       .  A
C1105      H1112   1.083       .  S
C1106      S1108   1.807       .  S
S1107      H1110   1.407       .  S
S1108      H1109   1.407       .  S
C1113      C1114   1.391       .  A
C1113      C1118   1.412       .  A
C1114      C1115   1.402       .  A
C1114      H1123   1.083       .  S
C1115      C1116   1.453       .  A
C1115      S1119   1.814       .  S
C1116      C1117   1.419       .  A
C1117      C1118   1.417       .  A
C1117      H1124   1.075       .  S
C1118      S1120   1.806       .  S
S1119      H1122   1.408       .  S
S1120      H1121   1.407       .  S
C1125      C1126   1.421       .  A
C1125      C1130   1.447       .  A
C1126      C1127   1.403       .  A
C1126      H1135   1.081       .  S
C1127      C1128   1.407       .  A
C1127      S1131   1.806       .  S
C1128      C1129   1.393       .  A
C1129      C1130   1.411       .  A
C1129      H1136   1.082       .  S
C1130      S1132   1.812       .  S
S1131      H1134   1.404       .  S
S1132      H1133   1.406       .  S
C1137      C1138   1.391       .  A
C1137      C1142   1.397       .  A
C1138      C1139   1.409       .  A
C1138      H1147   1.084       .  S
C1139      C1140   1.454       .  A
C1139      S1143   1.807       .  S
C1140      C1141   1.426       .  A
C1141      C1142   1.402       .  A
C1141      H1148   1.070       .  S
C1142      S1144   1.800       .  S
S1143      H1146   1.408       .  S
S1144      H1145   1.406       .  S
C1149      C1150   1.398       .  A
C1149      C1154   1.392       .  A
C1150      C1151   1.405       .  A
C1150      H1159   1.084       .  S
C1151      C1152   1.440       .  A
C1151      S1155   1.817       .  S
C1152      C1153   1.425       .  A
C1153      C1154   1.386       .  A
C1153      H1160   1.074       .  S
C1154      S1156   1.809       .  S
S1155      H1158   1.396       .  S
S1156      H1157   1.405       .  S
C1161      C1162   1.394       .  A
C1161      C1166   1.406       .  A
C1162      C1163   1.399       .  A
C1162      H1171   1.083       .  S
C1163      C1164   1.443       .  A
C1163      S1167   1.813       .  S
C1164      C1165   1.419       .  A
C1165      C1166   1.399       .  A
C1165      H1172   1.081       .  S
C1166      S1168   1.803       .  S
S1167      H1170   1.408       .  S
S1168      H1169   1.407       .  S
N1173      N1174   1.319       .  A
N1173      N1179   1.315       .  A
N1174      C1181   1.355       .  A
N1175      N1177   1.317       .  A
N1175      N1176   1.321       .  A
N1176      C1182   1.357       .  A
N1177      N1178   1.329       .  A
N1177     Mn1788   2.227       .  S
N1178      C1182   1.359       .  A
N1179      N1180   1.320       .  A
N1179     Mn1484   2.194   1_655  S
N1180      C1181   1.352       .  A
C1181      C1454   1.482       .  S
C1182      C1382   1.512       .  S
N1183      N1189   1.317       .  A
N1183      N1184   1.318       .  A
N1184      C1192   1.346       .  A
N1185      N1186   1.324       .  A
N1185      N1187   1.320       .  A
N1185     Mn1191   2.225   1_655  S
N1186      C1193   1.354       .  A
N1187      N1188   1.325       .  A
N1187     Mn1213   2.230       .  S
N1188      C1193   1.355       .  A
N1189      N1190   1.321       .  A
N1190      C1192   1.353       .  A
Mn1191     N1472   2.213   1_455  S
C1192      C1442   1.460       .  S
C1193      C1421   1.487       .  S
N1194      N1195   1.324       .  A
N1194      N1200   1.315       .  A
N1194     Mn1202   2.195   1_545  S
N1195      C1203   1.353       .  A
N1196      N1198   1.315       .  A
N1196      N1197   1.317       .  A
N1197      C1204   1.348       .  A
N1198      N1199   1.323       .  A
N1199      C1204   1.358       .  A
N1200      N1201   1.323       .  A
N1200     Mn1214   2.239   1_554  S
N1201      C1203   1.360       .  A
Mn1202     N1763   2.223       .  S
Mn1202    Cl1215   2.563   1_554  S
C1203      C1406   1.501       .  S
C1204      C1397   1.476       .  S
N1205      N1206   1.320       .  A
N1205      N1211   1.316       .  A
N1205     Mn1799   2.200   1_545  S
N1206      C1216   1.351       .  A
N1207      N1208   1.316       .  A
N1207      N1209   1.315       .  A
N1207     Mn1507   2.186       .  S
N1208      C1217   1.350       .  A
N1209      N1210   1.322       .  A
N1210      C1217   1.357       .  A
N1211      N1212   1.324       .  A
N1212      C1216   1.355       .  A
Mn1213     N1791   2.201       .  S
Mn1214     N1500   2.192       .  S
Mn1214    Cl1215   2.543   1_545  S
C1216      C1430   1.480       .  S
C1217      C1373   1.487       .  S
C1218      C1334   1.612       .  S
C1218      C1346   1.626       .  S
C1218      C1361   1.614       .  S
C1218      C1370   1.563       .  S
C1219      C1313   1.584       .  S
C1219      C1322   1.598       .  S
C1219      C1358   1.601       .  S
C1219      C1445   1.572       .  S
C1220      C1286   1.590       .  S
C1220      C1298   1.616       .  S
C1220      C1310   1.620       .  S
C1220      C1385   1.594       .  S
C1221      C1277   1.593       .  S
C1221      C1289   1.592       .  S
C1221      C1337   1.623       .  S
C1221      C1409   1.586       .  S
C1222      C1250   1.605       .  S
C1222      C1262   1.602       .  S
C1222      C1349   1.604       .  S
C1222      C1433   1.605       .  S
C1223      C1238   1.590       .  S
C1223      C1253   1.590       .  S
C1223      C1274   1.590       .  S
C1223      C1394   1.564       .  S
C1224      C1226   1.585       .  S
C1224      C1241   1.603       .  S
C1224      C1301   1.607       .  S
C1224      C1457   1.570       .  S
C1225      C1229   1.597       .  S
C1225      C1265   1.620       .  S
C1225      C1325   1.592       .  S
C1225      C1418   1.580       .  S
C1226      C1227   1.421       .  A
C1226      C1231   1.430       .  A
C1227      C1228   1.413       .  A
C1227      H1236   1.083       .  S
C1228      C1229   1.423       .  A
C1228      S1232   1.810       .  S
C1229      C1230   1.410       .  A
C1230      C1231   1.404       .  A
C1230      H1237   1.071       .  S
C1231      S1233   1.795       .  S
S1232      H1235   1.390       .  S
S1233      H1234   1.409       .  S
C1238      C1239   1.411       .  A
C1238      C1243   1.426       .  A
C1239      C1240   1.422       .  A
C1239      H1248   1.081       .  S
C1240      C1241   1.431       .  A
C1240      S1244   1.807       .  S
C1241      C1242   1.416       .  A
C1242      C1243   1.400       .  A
C1242      H1249   1.078       .  S
C1243      S1245   1.805       .  S
S1244      H1247   1.388       .  S
S1245      H1246   1.406       .  S
C1250      C1251   1.419       .  A
C1250      C1255   1.437       .  A
C1251      C1252   1.418       .  A
C1251      H1260   1.061       .  S
C1252      C1253   1.428       .  A
C1252      S1256   1.810       .  S
C1253      C1254   1.414       .  A
C1254      C1255   1.404       .  A
C1254      H1261   1.068       .  S
C1255      S1257   1.808       .  S
S1256      H1259   1.406       .  S
S1257      H1258   1.394       .  S
C1262      C1263   1.423       .  A
C1262      C1267   1.433       .  A
C1263      C1264   1.439       .  A
C1263      H1272   1.081       .  S
C1264      C1265   1.440       .  A
C1264      S1268   1.803       .  S
C1265      C1266   1.408       .  A
C1266      C1267   1.395       .  A
C1266      H1273   1.077       .  S
C1267      S1269   1.803       .  S
S1268      H1271   1.407       .  S
S1269      H1270   1.379       .  S
C1274      C1275   1.427       .  A
C1274      C1279   1.412       .  A
C1275      C1276   1.432       .  A
C1275      H1284   1.078       .  S
C1276      C1277   1.439       .  A
C1276      S1280   1.799       .  S
C1277      C1278   1.408       .  A
C1278      C1279   1.369       .  A
C1278      H1285   1.084       .  S
C1279      S1281   1.768       .  S
S1280      H1283   1.397       .  S
S1281      H1282   1.371       .  S
C1286      C1287   1.405       .  A
C1286      C1291   1.431       .  A
C1287      C1288   1.403       .  A
C1287      H1296   1.083       .  S
C1288      C1289   1.443       .  A
C1288      S1292   1.802       .  S
C1289      C1290   1.410       .  A
C1290      C1291   1.401       .  A
C1290      H1297   1.066       .  S
C1291      S1293   1.804       .  S
S1292      H1295   1.396       .  S
S1293      H1294   1.399       .  S
C1298      C1299   1.399       .  A
C1298      C1303   1.440       .  A
C1299      C1300   1.379       .  A
C1299      H1308   1.066       .  S
C1300      C1301   1.408       .  A
C1300      S1304   1.784       .  S
C1301      C1302   1.432       .  A
C1302      C1303   1.441       .  A
C1302      H1309   1.078       .  S
C1303      S1305   1.798       .  S
S1304      H1307   1.389       .  S
S1305      H1306   1.407       .  S
C1310      C1311   1.419       .  A
C1310      C1315   1.444       .  A
C1311      C1312   1.376       .  A
C1311      H1320   1.060       .  S
C1312      C1313   1.402       .  A
C1312      S1316   1.790       .  S
C1313      C1314   1.424       .  A
C1314      C1315   1.426       .  A
C1314      H1321   1.080       .  S
C1315      S1317   1.804       .  S
S1316      H1319   1.406       .  S
S1317      H1318   1.407       .  S
C1322      C1323   1.407       .  A
C1322      C1327   1.442       .  A
C1323      C1324   1.398       .  A
C1323      H1332   1.074       .  S
C1324      C1325   1.427       .  A
C1324      S1328   1.797       .  S
C1325      C1326   1.415       .  A
C1326      C1327   1.409       .  A
C1326      H1333   1.084       .  S
C1327      S1329   1.809       .  S
S1328      H1331   1.409       .  S
S1329      H1330   1.388       .  S
C1334      C1335   1.406       .  A
C1334      C1339   1.459       .  A
C1335      C1336   1.390       .  A
C1335      H1344   1.056       .  S
C1336      C1337   1.426       .  A
C1336      S1340   1.813       .  S
C1337      C1338   1.413       .  A
C1338      C1339   1.436       .  A
C1338      H1345   1.080       .  S
C1339      S1341   1.805       .  S
S1340      H1343   1.406       .  S
S1341      H1342   1.389       .  S
C1346      C1347   1.398       .  A
C1346      C1351   1.430       .  A
C1347      C1348   1.404       .  A
C1347      H1356   1.067       .  S
C1348      C1349   1.444       .  A
C1348      S1352   1.820       .  S
C1349      C1350   1.420       .  A
C1350      C1351   1.429       .  A
C1350      H1357   1.074       .  S
C1351      S1353   1.795       .  S
S1352      H1355   1.387       .  S
S1353      H1354   1.407       .  S
C1358      C1359   1.421       .  A
C1358      C1363   1.456       .  A
C1359      C1360   1.382       .  A
C1359      H1368   1.074       .  S
C1360      C1361   1.410       .  A
C1360      S1364   1.815       .  S
C1361      C1362   1.421       .  A
C1362      C1363   1.436       .  A
C1362      H1369   1.077       .  S
C1363      S1365   1.797       .  S
S1364      H1367   1.406       .  S
S1365      H1366   1.402       .  S
C1370      C1371   1.416       .  A
C1370      C1375   1.444       .  A
C1371      C1372   1.395       .  A
C1371      H1380   1.072       .  S
C1372      C1373   1.409       .  A
C1372      S1376   1.814       .  S
C1373      C1374   1.400       .  A
C1374      C1375   1.404       .  A
C1374      H1381   1.084       .  S
C1375      S1377   1.815       .  S
S1376      H1379   1.407       .  S
S1377      H1378   1.384       .  S
C1382      C1383   1.413       .  A
C1382      C1387   1.411       .  A
C1383      C1384   1.424       .  A
C1383      H1392   1.083       .  S
C1384      C1385   1.436       .  A
C1384      S1388   1.816       .  S
C1385      C1386   1.427       .  A
C1386      C1387   1.398       .  A
C1386      H1393   1.073       .  S
C1387      S1389   1.815       .  S
S1388      H1391   1.396       .  S
S1389      H1390   1.407       .  S
C1394      C1395   1.410       .  A
C1394      C1399   1.439       .  A
C1395      C1396   1.397       .  A
C1395      H1404   1.076       .  S
C1396      C1397   1.407       .  A
C1396      S1400   1.797       .  S
C1397      C1398   1.392       .  A
C1398      C1399   1.401       .  A
C1398      H1405   1.083       .  S
C1399      S1401   1.808       .  S
S1400      H1403   1.407       .  S
S1401      H1402   1.407       .  S
C1406      C1407   1.390       .  A
C1406      C1411   1.413       .  A
C1407      C1408   1.401       .  A
C1407      H1416   1.083       .  S
C1408      C1409   1.453       .  A
C1408      S1412   1.814       .  S
C1409      C1410   1.418       .  A
C1410      C1411   1.416       .  A
C1410      H1417   1.075       .  S
C1411      S1413   1.807       .  S
S1412      H1415   1.408       .  S
S1413      H1414   1.407       .  S
C1418      C1419   1.422       .  A
C1418      C1423   1.446       .  A
C1419      C1420   1.405       .  A
C1419      H1428   1.081       .  S
C1420      C1421   1.407       .  A
C1420      S1424   1.804       .  S
C1421      C1422   1.393       .  A
C1422      C1423   1.410       .  A
C1422      H1429   1.084       .  S
C1423      S1425   1.807       .  S
S1424      H1427   1.405       .  S
S1425      H1426   1.408       .  S
C1430      C1431   1.389       .  A
C1430      C1435   1.397       .  A
C1431      C1432   1.407       .  A
C1431      H1440   1.084       .  S
C1432      C1433   1.454       .  A
C1432      S1436   1.806       .  S
C1433      C1434   1.427       .  A
C1434      C1435   1.401       .  A
C1434      H1441   1.070       .  S
C1435      S1437   1.802       .  S
S1436      H1439   1.408       .  S
S1437      H1438   1.406       .  S
C1442      C1443   1.398       .  A
C1442      C1447   1.394       .  A
C1443      C1444   1.405       .  A
C1443      H1452   1.084       .  S
C1444      C1445   1.438       .  A
C1444      S1448   1.818       .  S
C1445      C1446   1.427       .  A
C1446      C1447   1.388       .  A
C1446      H1453   1.075       .  S
C1447      S1449   1.808       .  S
S1448      H1451   1.395       .  S
S1449      H1450   1.405       .  S
C1454      C1455   1.395       .  A
C1454      C1459   1.408       .  A
C1455      C1456   1.400       .  A
C1455      H1464   1.083       .  S
C1456      C1457   1.443       .  A
C1456      S1460   1.812       .  S
C1457      C1458   1.419       .  A
C1458      C1459   1.399       .  A
C1458      H1465   1.081       .  S
C1459      S1461   1.803       .  S
S1460      H1463   1.408       .  S
S1461      H1462   1.407       .  S
N1466      N1467   1.319       .  A
N1466      N1472   1.316       .  A
N1467      C1474   1.353       .  A
N1468      N1470   1.317       .  A
N1468      N1469   1.321       .  A
N1469      C1475   1.358       .  A
N1470      N1471   1.328       .  A
N1470     Mn2081   2.222       .  S
N1471      C1475   1.357       .  A
N1472      N1473   1.323       .  A
N1473      C1474   1.355       .  A
C1474      C1747   1.486       .  S
C1475      C1675   1.507       .  S
N1476      N1482   1.316       .  A
N1476      N1477   1.318       .  A
N1477      C1485   1.347       .  A
N1478      N1479   1.324       .  A
N1478      N1480   1.319       .  A
N1478     Mn1484   2.221   1_656  S
N1479      C1486   1.353       .  A
N1480      N1481   1.326       .  A
N1480     Mn1506   2.235       .  S
N1481      C1486   1.357       .  A
N1482      N1483   1.319       .  A
N1483      C1485   1.350       .  A
C1485      C1735   1.457       .  S
C1486      C1714   1.490       .  S
N1487      N1488   1.324       .  A
N1487      N1493   1.315       .  A
N1487     Mn1495   2.194   1_545  S
N1488      C1496   1.353       .  A
N1489      N1491   1.316       .  A
N1489      N1490   1.318       .  A
N1490      C1497   1.350       .  A
N1491      N1492   1.323       .  A
N1492      C1497   1.357       .  A
N1493      N1494   1.323       .  A
N1493     Mn1507   2.241       .  S
N1494      C1496   1.361       .  A
Mn1495     N2056   2.214       .  S
Mn1495    Cl1508   2.563       .  S
C1496      C1699   1.501       .  S
C1497      C1690   1.480       .  S
N1498      N1499   1.320       .  A
N1498      N1504   1.317       .  A
N1498     Mn2092   2.203   1_545  S
N1499      C1509   1.352       .  A
N1500      N1501   1.316       .  A
N1500      N1502   1.316       .  A
N1501      C1510   1.351       .  A
N1502      N1503   1.322       .  A
N1503      C1510   1.357       .  A
N1504      N1505   1.324       .  A
N1505      C1509   1.353       .  A
Mn1506     N2084   2.204       .  S
Mn1507    Cl1508   2.540   1_545  S
C1509      C1723   1.478       .  S
C1510      C1666   1.486       .  S
C1511      C1627   1.613       .  S
C1511      C1639   1.627       .  S
C1511      C1654   1.617       .  S
C1511      C1663   1.565       .  S
C1512      C1606   1.580       .  S
C1512      C1615   1.603       .  S
C1512      C1651   1.601       .  S
C1512      C1738   1.573       .  S
C1513      C1579   1.588       .  S
C1513      C1591   1.617       .  S
C1513      C1603   1.617       .  S
C1513      C1678   1.599       .  S
C1514      C1570   1.596       .  S
C1514      C1582   1.591       .  S
C1514      C1630   1.624       .  S
C1514      C1702   1.587       .  S
C1515      C1543   1.602       .  S
C1515      C1555   1.602       .  S
C1515      C1642   1.604       .  S
C1515      C1726   1.605       .  S
C1516      C1531   1.591       .  S
C1516      C1546   1.590       .  S
C1516      C1567   1.594       .  S
C1516      C1687   1.567       .  S
C1517      C1519   1.590       .  S
C1517      C1534   1.608       .  S
C1517      C1594   1.609       .  S
C1517      C1750   1.575       .  S
C1518      C1522   1.603       .  S
C1518      C1558   1.619       .  S
C1518      C1618   1.595       .  S
C1518      C1711   1.584       .  S
C1519      C1520   1.423       .  A
C1519      C1524   1.429       .  A
C1520      C1521   1.417       .  A
C1520      H1529   1.083       .  S
C1521      C1522   1.426       .  A
C1521      S1525   1.810       .  S
C1522      C1523   1.410       .  A
C1523      C1524   1.405       .  A
C1523      H1530   1.071       .  S
C1524      S1526   1.793       .  S
S1525      H1528   1.390       .  S
S1526      H1527   1.409       .  S
C1531      C1532   1.411       .  A
C1531      C1536   1.422       .  A
C1532      C1533   1.423       .  A
C1532      H1541   1.081       .  S
C1533      C1534   1.434       .  A
C1533      S1537   1.807       .  S
C1534      C1535   1.419       .  A
C1535      C1536   1.401       .  A
C1535      H1542   1.078       .  S
C1536      S1538   1.803       .  S
S1537      H1540   1.388       .  S
S1538      H1539   1.406       .  S
C1543      C1544   1.418       .  A
C1543      C1548   1.435       .  A
C1544      C1545   1.418       .  A
C1544      H1553   1.063       .  S
C1545      C1546   1.428       .  A
C1545      S1549   1.809       .  S
C1546      C1547   1.415       .  A
C1547      C1548   1.402       .  A
C1547      H1554   1.067       .  S
C1548      S1550   1.808       .  S
S1549      H1552   1.406       .  S
S1550      H1551   1.394       .  S
C1555      C1556   1.424       .  A
C1555      C1560   1.434       .  A
C1556      C1557   1.439       .  A
C1556      H1565   1.081       .  S
C1557      C1558   1.439       .  A
C1557      S1561   1.804       .  S
C1558      C1559   1.407       .  A
C1559      C1560   1.395       .  A
C1559      H1566   1.076       .  S
C1560      S1562   1.804       .  S
S1561      H1564   1.407       .  S
S1562      H1563   1.380       .  S
C1567      C1568   1.428       .  A
C1567      C1572   1.412       .  A
C1568      C1569   1.433       .  A
C1568      H1577   1.078       .  S
C1569      C1570   1.440       .  A
C1569      S1573   1.798       .  S
C1570      C1571   1.408       .  A
C1571      C1572   1.370       .  A
C1571      H1578   1.085       .  S
C1572      S1574   1.765       .  S
S1573      H1576   1.397       .  S
S1574      H1575   1.371       .  S
C1579      C1580   1.405       .  A
C1579      C1584   1.434       .  A
C1580      C1581   1.402       .  A
C1580      H1589   1.083       .  S
C1581      C1582   1.443       .  A
C1581      S1585   1.803       .  S
C1582      C1583   1.409       .  A
C1583      C1584   1.400       .  A
C1583      H1590   1.066       .  S
C1584      S1586   1.809       .  S
S1585      H1588   1.393       .  S
S1586      H1587   1.395       .  S
C1591      C1592   1.397       .  A
C1591      C1596   1.439       .  A
C1592      C1593   1.377       .  A
C1592      H1601   1.067       .  S
C1593      C1594   1.410       .  A
C1593      S1597   1.784       .  S
C1594      C1595   1.433       .  A
C1595      C1596   1.443       .  A
C1595      H1602   1.078       .  S
C1596      S1598   1.799       .  S
S1597      H1600   1.390       .  S
S1598      H1599   1.406       .  S
C1603      C1604   1.421       .  A
C1603      C1608   1.444       .  A
C1604      C1605   1.373       .  A
C1604      H1613   1.063       .  S
C1605      C1606   1.399       .  A
C1605      S1609   1.792       .  S
C1606      C1607   1.424       .  A
C1607      C1608   1.425       .  A
C1607      H1614   1.081       .  S
C1608      S1610   1.803       .  S
S1609      H1612   1.407       .  S
S1610      H1611   1.408       .  S
C1615      C1616   1.409       .  A
C1615      C1620   1.443       .  A
C1616      C1617   1.400       .  A
C1616      H1625   1.073       .  S
C1617      C1618   1.424       .  A
C1617      S1621   1.796       .  S
C1618      C1619   1.416       .  A
C1619      C1620   1.410       .  A
C1619      H1626   1.084       .  S
C1620      S1622   1.810       .  S
S1621      H1624   1.409       .  S
S1622      H1623   1.389       .  S
C1627      C1628   1.408       .  A
C1627      C1632   1.458       .  A
C1628      C1629   1.390       .  A
C1628      H1637   1.057       .  S
C1629      C1630   1.424       .  A
C1629      S1633   1.812       .  S
C1630      C1631   1.414       .  A
C1631      C1632   1.437       .  A
C1631      H1638   1.080       .  S
C1632      S1634   1.806       .  S
S1633      H1636   1.405       .  S
S1634      H1635   1.388       .  S
C1639      C1640   1.400       .  A
C1639      C1644   1.428       .  A
C1640      C1641   1.402       .  A
C1640      H1649   1.067       .  S
C1641      C1642   1.443       .  A
C1641      S1645   1.820       .  S
C1642      C1643   1.421       .  A
C1643      C1644   1.428       .  A
C1643      H1650   1.072       .  S
C1644      S1646   1.795       .  S
S1645      H1648   1.388       .  S
S1646      H1647   1.406       .  S
C1651      C1652   1.419       .  A
C1651      C1656   1.457       .  A
C1652      C1653   1.382       .  A
C1652      H1661   1.074       .  S
C1653      C1654   1.409       .  A
C1653      S1657   1.815       .  S
C1654      C1655   1.425       .  A
C1655      C1656   1.442       .  A
C1655      H1662   1.077       .  S
C1656      S1658   1.797       .  S
S1657      H1660   1.406       .  S
S1658      H1659   1.402       .  S
C1663      C1664   1.416       .  A
C1663      C1668   1.446       .  A
C1664      C1665   1.395       .  A
C1664      H1673   1.073       .  S
C1665      C1666   1.407       .  A
C1665      S1669   1.812       .  S
C1666      C1667   1.399       .  A
C1667      C1668   1.405       .  A
C1667      H1674   1.084       .  S
C1668      S1670   1.815       .  S
S1669      H1672   1.407       .  S
S1670      H1671   1.385       .  S
C1675      C1676   1.412       .  A
C1675      C1680   1.407       .  A
C1676      C1677   1.424       .  A
C1676      H1685   1.084       .  S
C1677      C1678   1.439       .  A
C1677      S1681   1.816       .  S
C1678      C1679   1.430       .  A
C1679      C1680   1.396       .  A
C1679      H1686   1.072       .  S
C1680      S1682   1.816       .  S
S1681      H1684   1.396       .  S
S1682      H1683   1.407       .  S
C1687      C1688   1.411       .  A
C1687      C1692   1.440       .  A
C1688      C1689   1.399       .  A
C1688      H1697   1.077       .  S
C1689      C1690   1.407       .  A
C1689      S1693   1.798       .  S
C1690      C1691   1.393       .  A
C1691      C1692   1.403       .  A
C1691      H1698   1.084       .  S
C1692      S1694   1.807       .  S
S1693      H1696   1.407       .  S
S1694      H1695   1.408       .  S
C1699      C1700   1.389       .  A
C1699      C1704   1.413       .  A
C1700      C1701   1.399       .  A
C1700      H1709   1.084       .  S
C1701      C1702   1.454       .  A
C1701      S1705   1.815       .  S
C1702      C1703   1.419       .  A
C1703      C1704   1.418       .  A
C1703      H1710   1.077       .  S
C1704      S1706   1.807       .  S
S1705      H1708   1.409       .  S
S1706      H1707   1.407       .  S
C1711      C1712   1.422       .  A
C1711      C1716   1.447       .  A
C1712      C1713   1.405       .  A
C1712      H1721   1.080       .  S
C1713      C1714   1.407       .  A
C1713      S1717   1.805       .  S
C1714      C1715   1.395       .  A
C1715      C1716   1.414       .  A
C1715      H1722   1.083       .  S
C1716      S1718   1.808       .  S
S1717      H1720   1.404       .  S
S1718      H1719   1.407       .  S
C1723      C1724   1.388       .  A
C1723      C1728   1.397       .  A
C1724      C1725   1.407       .  A
C1724      H1733   1.084       .  S
C1725      C1726   1.455       .  A
C1725      S1729   1.807       .  S
C1726      C1727   1.427       .  A
C1727      C1728   1.400       .  A
C1727      H1734   1.070       .  S
C1728      S1730   1.802       .  S
S1729      H1732   1.408       .  S
S1730      H1731   1.405       .  S
C1735      C1736   1.396       .  A
C1735      C1740   1.391       .  A
C1736      C1737   1.405       .  A
C1736      H1745   1.084       .  S
C1737      C1738   1.442       .  A
C1737      S1741   1.818       .  S
C1738      C1739   1.426       .  A
C1739      C1740   1.386       .  A
C1739      H1746   1.074       .  S
C1740      S1742   1.808       .  S
S1741      H1744   1.394       .  S
S1742      H1743   1.406       .  S
C1747      C1748   1.396       .  A
C1747      C1752   1.406       .  A
C1748      C1749   1.403       .  A
C1748      H1757   1.083       .  S
C1749      C1750   1.444       .  A
C1749      S1753   1.813       .  S
C1750      C1751   1.420       .  A
C1751      C1752   1.401       .  A
C1751      H1758   1.081       .  S
C1752      S1754   1.802       .  S
S1753      H1756   1.408       .  S
S1754      H1755   1.407       .  S
N1759      N1760   1.317       .  A
N1759      N1765   1.315       .  A
N1760      C1767   1.352       .  A
N1761      N1763   1.316       .  A
N1761      N1762   1.321       .  A
N1762      C1768   1.358       .  A
N1763      N1764   1.328       .  A
N1764      C1768   1.358       .  A
N1765      N1766   1.322       .  A
N1765     Mn2070   2.200   1_654  S
N1766      C1767   1.354       .  A
C1767      C2040   1.477       .  S
C1768      C1968   1.511       .  S
N1769      N1775   1.317       .  A
N1769      N1770   1.318       .  A
N1770      C1778   1.347       .  A
N1771      N1772   1.323       .  A
N1771      N1773   1.319       .  A
N1771     Mn1777   2.213   1_655  S
N1772      C1779   1.352       .  A
N1773      N1774   1.322       .  A
N1773     Mn1799   2.217       .  S
N1774      C1779   1.354       .  A
N1775      N1776   1.319       .  A
N1776      C1778   1.351       .  A
Mn1777     N2058   2.201   1_455  S
C1778      C2028   1.458       .  S
C1779      C2007   1.478       .  S
N1780      N1781   1.325       .  A
N1780      N1786   1.316       .  A
N1780     Mn1788   2.201       .  S
N1781      C1789   1.354       .  A
N1782      N1784   1.316       .  A
N1782      N1783   1.318       .  A
N1783      C1790   1.350       .  A
N1784      N1785   1.324       .  A
N1785      C1790   1.357       .  A
N1786      N1787   1.323       .  A
N1786     Mn1800   2.242       .  S
N1787      C1789   1.361       .  A
Mn1788    Cl1801   2.567       .  S
C1789      C1992   1.503       .  S
C1790      C1983   1.478       .  S
N1791      N1792   1.320       .  A
N1791      N1797   1.317       .  A
N1792      C1802   1.352       .  A
N1793      N1794   1.317       .  A
N1793      N1795   1.316       .  A
N1793     Mn2093   2.195       .  S
N1794      C1803   1.351       .  A
N1795      N1796   1.323       .  A
N1796      C1803   1.358       .  A
N1797      N1798   1.323       .  A
N1798      C1802   1.353       .  A
Mn1800     N2086   2.185   1_554  S
Mn1800    Cl1801   2.542       .  S
C1802      C2016   1.478       .  S
C1803      C1959   1.490       .  S
C1804      C1920   1.610       .  S
C1804      C1932   1.628       .  S
C1804      C1947   1.615       .  S
C1804      C1956   1.567       .  S
C1805      C1899   1.581       .  S
C1805      C1908   1.600       .  S
C1805      C1944   1.603       .  S
C1805      C2031   1.572       .  S
C1806      C1872   1.593       .  S
C1806      C1884   1.618       .  S
C1806      C1896   1.617       .  S
C1806      C1971   1.590       .  S
C1807      C1863   1.593       .  S
C1807      C1875   1.596       .  S
C1807      C1923   1.623       .  S
C1807      C1995   1.588       .  S
C1808      C1836   1.600       .  S
C1808      C1848   1.601       .  S
C1808      C1935   1.606       .  S
C1808      C2019   1.606       .  S
C1809      C1824   1.590       .  S
C1809      C1839   1.588       .  S
C1809      C1860   1.594       .  S
C1809      C1980   1.566       .  S
C1810      C1812   1.584       .  S
C1810      C1827   1.604       .  S
C1810      C1887   1.606       .  S
C1810      C2043   1.568       .  S
C1811      C1815   1.600       .  S
C1811      C1851   1.618       .  S
C1811      C1911   1.593       .  S
C1811      C2004   1.574       .  S
C1812      C1813   1.422       .  A
C1812      C1817   1.427       .  A
C1813      C1814   1.415       .  A
C1813      H1822   1.083       .  S
C1814      C1815   1.424       .  A
C1814      S1818   1.810       .  S
C1815      C1816   1.410       .  A
C1816      C1817   1.404       .  A
C1816      H1823   1.070       .  S
C1817      S1819   1.795       .  S
S1818      H1821   1.391       .  S
S1819      H1820   1.409       .  S
C1824      C1825   1.410       .  A
C1824      C1829   1.423       .  A
C1825      C1826   1.420       .  A
C1825      H1834   1.080       .  S
C1826      C1827   1.432       .  A
C1826      S1830   1.806       .  S
C1827      C1828   1.418       .  A
C1828      C1829   1.403       .  A
C1828      H1835   1.079       .  S
C1829      S1831   1.803       .  S
S1830      H1833   1.386       .  S
S1831      H1832   1.407       .  S
C1836      C1837   1.416       .  A
C1836      C1841   1.435       .  A
C1837      C1838   1.417       .  A
C1837      H1846   1.063       .  S
C1838      C1839   1.428       .  A
C1838      S1842   1.809       .  S
C1839      C1840   1.415       .  A
C1840      C1841   1.402       .  A
C1840      H1847   1.068       .  S
C1841      S1843   1.808       .  S
S1842      H1845   1.406       .  S
S1843      H1844   1.395       .  S
C1848      C1849   1.422       .  A
C1848      C1853   1.434       .  A
C1849      C1850   1.438       .  A
C1849      H1858   1.081       .  S
C1850      C1851   1.441       .  A
C1850      S1854   1.805       .  S
C1851      C1852   1.406       .  A
C1852      C1853   1.393       .  A
C1852      H1859   1.077       .  S
C1853      S1855   1.803       .  S
S1854      H1857   1.406       .  S
S1855      H1856   1.380       .  S
C1860      C1861   1.428       .  A
C1860      C1865   1.413       .  A
C1861      C1862   1.432       .  A
C1861      H1870   1.077       .  S
C1862      C1863   1.438       .  A
C1862      S1866   1.799       .  S
C1863      C1864   1.408       .  A
C1864      C1865   1.369       .  A
C1864      H1871   1.085       .  S
C1865      S1867   1.767       .  S
S1866      H1869   1.397       .  S
S1867      H1868   1.369       .  S
C1872      C1873   1.405       .  A
C1872      C1877   1.431       .  A
C1873      C1874   1.404       .  A
C1873      H1882   1.083       .  S
C1874      C1875   1.444       .  A
C1874      S1878   1.802       .  S
C1875      C1876   1.410       .  A
C1876      C1877   1.404       .  A
C1876      H1883   1.067       .  S
C1877      S1879   1.802       .  S
S1878      H1881   1.395       .  S
S1879      H1880   1.401       .  S
C1884      C1885   1.399       .  A
C1884      C1889   1.444       .  A
C1885      C1886   1.378       .  A
C1885      H1894   1.066       .  S
C1886      C1887   1.407       .  A
C1886      S1890   1.782       .  S
C1887      C1888   1.430       .  A
C1888      C1889   1.441       .  A
C1888      H1895   1.079       .  S
C1889      S1891   1.797       .  S
S1890      H1893   1.389       .  S
S1891      H1892   1.406       .  S
C1896      C1897   1.420       .  A
C1896      C1901   1.445       .  A
C1897      C1898   1.376       .  A
C1897      H1906   1.062       .  S
C1898      C1899   1.399       .  A
C1898      S1902   1.789       .  S
C1899      C1900   1.424       .  A
C1900      C1901   1.424       .  A
C1900      H1907   1.080       .  S
C1901      S1903   1.807       .  S
S1902      H1905   1.407       .  S
S1903      H1904   1.407       .  S
C1908      C1909   1.407       .  A
C1908      C1913   1.441       .  A
C1909      C1910   1.399       .  A
C1909      H1918   1.074       .  S
C1910      C1911   1.427       .  A
C1910      S1914   1.797       .  S
C1911      C1912   1.416       .  A
C1912      C1913   1.408       .  A
C1912      H1919   1.084       .  S
C1913      S1915   1.810       .  S
S1914      H1917   1.409       .  S
S1915      H1916   1.389       .  S
C1920      C1921   1.405       .  A
C1920      C1925   1.458       .  A
C1921      C1922   1.388       .  A
C1921      H1930   1.056       .  S
C1922      C1923   1.426       .  A
C1922      S1926   1.813       .  S
C1923      C1924   1.414       .  A
C1924      C1925   1.436       .  A
C1924      H1931   1.080       .  S
C1925      S1927   1.806       .  S
S1926      H1929   1.405       .  S
S1927      H1928   1.389       .  S
C1932      C1933   1.400       .  A
C1932      C1937   1.429       .  A
C1933      C1934   1.404       .  A
C1933      H1942   1.067       .  S
C1934      C1935   1.444       .  A
C1934      S1938   1.821       .  S
C1935      C1936   1.421       .  A
C1936      C1937   1.428       .  A
C1936      H1943   1.072       .  S
C1937      S1939   1.795       .  S
S1938      H1941   1.388       .  S
S1939      H1940   1.407       .  S
C1944      C1945   1.420       .  A
C1944      C1949   1.457       .  A
C1945      C1946   1.383       .  A
C1945      H1954   1.075       .  S
C1946      C1947   1.409       .  A
C1946      S1950   1.813       .  S
C1947      C1948   1.422       .  A
C1948      C1949   1.440       .  A
C1948      H1955   1.078       .  S
C1949      S1951   1.797       .  S
S1950      H1953   1.407       .  S
S1951      H1952   1.402       .  S
C1956      C1957   1.416       .  A
C1956      C1961   1.447       .  A
C1957      C1958   1.398       .  A
C1957      H1966   1.074       .  S
C1958      C1959   1.408       .  A
C1958      S1962   1.812       .  S
C1959      C1960   1.398       .  A
C1960      C1961   1.405       .  A
C1960      H1967   1.084       .  S
C1961      S1963   1.815       .  S
S1962      H1965   1.407       .  S
S1963      H1964   1.385       .  S
C1968      C1969   1.412       .  A
C1968      C1973   1.409       .  A
C1969      C1970   1.423       .  A
C1969      H1978   1.083       .  S
C1970      C1971   1.437       .  A
C1970      S1974   1.817       .  S
C1971      C1972   1.426       .  A
C1972      C1973   1.395       .  A
C1972      H1979   1.076       .  S
C1973      S1975   1.804       .  S
S1974      H1977   1.396       .  S
S1975      H1976   1.408       .  S
C1980      C1981   1.410       .  A
C1980      C1985   1.442       .  A
C1981      C1982   1.398       .  A
C1981      H1990   1.077       .  S
C1982      C1983   1.405       .  A
C1982      S1986   1.794       .  S
C1983      C1984   1.391       .  A
C1984      C1985   1.403       .  A
C1984      H1991   1.084       .  S
C1985      S1987   1.807       .  S
S1986      H1989   1.407       .  S
S1987      H1988   1.407       .  S
C1992      C1993   1.391       .  A
C1992      C1997   1.413       .  A
C1993      C1994   1.402       .  A
C1993      H2002   1.083       .  S
C1994      C1995   1.452       .  A
C1994      S1998   1.815       .  S
C1995      C1996   1.419       .  A
C1996      C1997   1.417       .  A
C1996      H2003   1.075       .  S
C1997      S1999   1.807       .  S
S1998      H2001   1.408       .  S
S1999      H2000   1.407       .  S
C2004      C2005   1.421       .  A
C2004      C2009   1.446       .  A
C2005      C2006   1.401       .  A
C2005      H2014   1.081       .  S
C2006      C2007   1.405       .  A
C2006      S2010   1.806       .  S
C2007      C2008   1.392       .  A
C2008      C2009   1.409       .  A
C2008      H2015   1.083       .  S
C2009      S2011   1.809       .  S
S2010      H2013   1.404       .  S
S2011      H2012   1.407       .  S
C2016      C2017   1.388       .  A
C2016      C2021   1.395       .  A
C2017      C2018   1.407       .  A
C2017      H2026   1.084       .  S
C2018      C2019   1.457       .  A
C2018      S2022   1.810       .  S
C2019      C2020   1.428       .  A
C2020      C2021   1.400       .  A
C2020      H2027   1.070       .  S
C2021      S2023   1.801       .  S
S2022      H2025   1.408       .  S
S2023      H2024   1.406       .  S
C2028      C2029   1.397       .  A
C2028      C2033   1.392       .  A
C2029      C2030   1.405       .  A
C2029      H2038   1.084       .  S
C2030      C2031   1.441       .  A
C2030      S2034   1.818       .  S
C2031      C2032   1.426       .  A
C2032      C2033   1.386       .  A
C2032      H2039   1.074       .  S
C2033      S2035   1.807       .  S
S2034      H2037   1.395       .  S
S2035      H2036   1.406       .  S
C2040      C2041   1.394       .  A
C2040      C2045   1.405       .  A
C2041      C2042   1.399       .  A
C2041      H2050   1.083       .  S
C2042      C2043   1.444       .  A
C2042      S2046   1.815       .  S
C2043      C2044   1.419       .  A
C2044      C2045   1.399       .  A
C2044      H2051   1.081       .  S
C2045      S2047   1.803       .  S
S2046      H2049   1.408       .  S
S2047      H2048   1.407       .  S
N2052      N2053   1.320       .  A
N2052      N2058   1.315       .  A
N2053      C2060   1.355       .  A
N2054      N2056   1.316       .  A
N2054      N2055   1.319       .  A
N2055      C2061   1.357       .  A
N2056      N2057   1.327       .  A
N2057      C2061   1.357       .  A
N2058      N2059   1.321       .  A
N2059      C2060   1.353       .  A
C2060      C2333   1.482       .  S
C2061      C2261   1.506       .  S
N2062      N2068   1.316       .  A
N2062      N2063   1.318       .  A
N2063      C2071   1.347       .  A
N2064      N2065   1.323       .  A
N2064      N2066   1.319       .  A
N2064     Mn2070   2.220   1_655  S
N2065      C2072   1.353       .  A
N2066      N2067   1.325       .  A
N2066     Mn2092   2.228       .  S
N2067      C2072   1.356       .  A
N2068      N2069   1.320       .  A
N2069      C2071   1.351       .  A
C2071      C2321   1.460       .  S
C2072      C2300   1.486       .  S
N2073      N2074   1.325       .  A
N2073      N2079   1.316       .  A
N2073     Mn2081   2.202       .  S
N2074      C2082   1.354       .  A
N2075      N2077   1.316       .  A
N2075      N2076   1.319       .  A
N2076      C2083   1.350       .  A
N2077      N2078   1.324       .  A
N2078      C2083   1.360       .  A
N2079      N2080   1.323       .  A
N2079     Mn2093   2.240       .  S
N2080      C2082   1.361       .  A
Mn2081    Cl2094   2.564       .  S
C2082      C2285   1.504       .  S
C2083      C2276   1.485       .  S
N2084      N2085   1.320       .  A
N2084      N2090   1.317       .  A
N2085      C2095   1.352       .  A
N2086      N2087   1.316       .  A
N2086      N2088   1.315       .  A
N2087      C2096   1.351       .  A
N2088      N2089   1.322       .  A
N2089      C2096   1.356       .  A
N2090      N2091   1.326       .  A
N2091      C2095   1.356       .  A
Mn2093    Cl2094   2.543       .  S
C2095      C2309   1.484       .  S
C2096      C2252   1.485       .  S
C2097      C2213   1.620       .  S
C2097      C2225   1.633       .  S
C2097      C2240   1.620       .  S
C2097      C2249   1.567       .  S
C2098      C2192   1.588       .  S
C2098      C2201   1.604       .  S
C2098      C2237   1.603       .  S
C2098      C2324   1.576       .  S
C2099      C2165   1.589       .  S
C2099      C2177   1.615       .  S
C2099      C2189   1.618       .  S
C2099      C2264   1.591       .  S
C2100      C2156   1.593       .  S
C2100      C2168   1.590       .  S
C2100      C2216   1.626       .  S
C2100      C2288   1.589       .  S
C2101      C2129   1.607       .  S
C2101      C2141   1.598       .  S
C2101      C2228   1.605       .  S
C2101      C2312   1.603       .  S
C2102      C2117   1.593       .  S
C2102      C2132   1.592       .  S
C2102      C2153   1.590       .  S
C2102      C2273   1.571       .  S
C2103      C2105   1.584       .  S
C2103      C2120   1.606       .  S
C2103      C2180   1.608       .  S
C2103      C2336   1.572       .  S
C2104      C2108   1.597       .  S
C2104      C2144   1.616       .  S
C2104      C2204   1.591       .  S
C2104      C2297   1.577       .  S
C2105      C2106   1.422       .  A
C2105      C2110   1.428       .  A
C2106      C2107   1.414       .  A
C2106      H2115   1.083       .  S
C2107      C2108   1.424       .  A
C2107      S2111   1.809       .  S
C2108      C2109   1.410       .  A
C2109      C2110   1.402       .  A
C2109      H2116   1.072       .  S
C2110      S2112   1.794       .  S
S2111      H2114   1.389       .  S
S2112      H2113   1.409       .  S
C2117      C2118   1.411       .  A
C2117      C2122   1.428       .  A
C2118      C2119   1.423       .  A
C2118      H2127   1.082       .  S
C2119      C2120   1.432       .  A
C2119      S2123   1.806       .  S
C2120      C2121   1.415       .  A
C2121      C2122   1.402       .  A
C2121      H2128   1.078       .  S
C2122      S2124   1.805       .  S
S2123      H2126   1.387       .  S
S2124      H2125   1.406       .  S
C2129      C2130   1.419       .  A
C2129      C2134   1.437       .  A
C2130      C2131   1.418       .  A
C2130      H2139   1.061       .  S
C2131      C2132   1.428       .  A
C2131      S2135   1.810       .  S
C2132      C2133   1.416       .  A
C2133      C2134   1.406       .  A
C2133      H2140   1.067       .  S
C2134      S2136   1.808       .  S
S2135      H2138   1.406       .  S
S2136      H2137   1.396       .  S
C2141      C2142   1.423       .  A
C2141      C2146   1.432       .  A
C2142      C2143   1.437       .  A
C2142      H2151   1.081       .  S
C2143      C2144   1.439       .  A
C2143      S2147   1.805       .  S
C2144      C2145   1.406       .  A
C2145      C2146   1.393       .  A
C2145      H2152   1.078       .  S
C2146      S2148   1.800       .  S
S2147      H2150   1.406       .  S
S2148      H2149   1.382       .  S
C2153      C2154   1.428       .  A
C2153      C2158   1.414       .  A
C2154      C2155   1.433       .  A
C2154      H2163   1.078       .  S
C2155      C2156   1.438       .  A
C2155      S2159   1.799       .  S
C2156      C2157   1.407       .  A
C2157      C2158   1.369       .  A
C2157      H2164   1.082       .  S
C2158      S2160   1.771       .  S
S2159      H2162   1.401       .  S
S2160      H2161   1.372       .  S
C2165      C2166   1.404       .  A
C2165      C2170   1.433       .  A
C2166      C2167   1.403       .  A
C2166      H2175   1.082       .  S
C2167      C2168   1.440       .  A
C2167      S2171   1.806       .  S
C2168      C2169   1.410       .  A
C2169      C2170   1.403       .  A
C2169      H2176   1.067       .  S
C2170      S2172   1.805       .  S
S2171      H2174   1.407       .  S
S2172      H2173   1.398       .  S
C2177      C2178   1.399       .  A
C2177      C2182   1.439       .  A
C2178      C2179   1.378       .  A
C2178      H2187   1.065       .  S
C2179      C2180   1.410       .  A
C2179      S2183   1.784       .  S
C2180      C2181   1.432       .  A
C2181      C2182   1.440       .  A
C2181      H2188   1.078       .  S
C2182      S2184   1.799       .  S
S2183      H2186   1.389       .  S
S2184      H2185   1.407       .  S
C2189      C2190   1.414       .  A
C2189      C2194   1.438       .  A
C2190      C2191   1.375       .  A
C2190      H2199   1.061       .  S
C2191      C2192   1.408       .  A
C2191      S2195   1.788       .  S
C2192      C2193   1.430       .  A
C2193      C2194   1.426       .  A
C2193      H2200   1.080       .  S
C2194      S2196   1.805       .  S
S2195      H2198   1.402       .  S
S2196      H2197   1.407       .  S
C2201      C2202   1.409       .  A
C2201      C2206   1.445       .  A
C2202      C2203   1.398       .  A
C2202      H2211   1.073       .  S
C2203      C2204   1.424       .  A
C2203      S2207   1.798       .  S
C2204      C2205   1.415       .  A
C2205      C2206   1.411       .  A
C2205      H2212   1.084       .  S
C2206      S2208   1.811       .  S
S2207      H2210   1.409       .  S
S2208      H2209   1.392       .  S
C2213      C2214   1.408       .  A
C2213      C2218   1.463       .  A
C2214      C2215   1.393       .  A
C2214      H2223   1.057       .  S
C2215      C2216   1.426       .  A
C2215      S2219   1.811       .  S
C2216      C2217   1.412       .  A
C2217      C2218   1.437       .  A
C2217      H2224   1.080       .  S
C2218      S2220   1.805       .  S
S2219      H2222   1.405       .  S
S2220      H2221   1.389       .  S
C2225      C2226   1.401       .  A
C2225      C2230   1.431       .  A
C2226      C2227   1.399       .  A
C2226      H2235   1.063       .  S
C2227      C2228   1.444       .  A
C2227      S2231   1.822       .  S
C2228      C2229   1.422       .  A
C2229      C2230   1.430       .  A
C2229      H2236   1.073       .  S
C2230      S2232   1.794       .  S
S2231      H2234   1.389       .  S
S2232      H2233   1.407       .  S
C2237      C2238   1.422       .  A
C2237      C2242   1.453       .  A
C2238      C2239   1.382       .  A
C2238      H2247   1.073       .  S
C2239      C2240   1.414       .  A
C2239      S2243   1.819       .  S
C2240      C2241   1.418       .  A
C2241      C2242   1.436       .  A
C2241      H2248   1.075       .  S
C2242      S2244   1.797       .  S
S2243      H2246   1.402       .  S
S2244      H2245   1.405       .  S
C2249      C2250   1.414       .  A
C2249      C2254   1.445       .  A
C2250      C2251   1.392       .  A
C2250      H2259   1.066       .  S
C2251      C2252   1.405       .  A
C2251      S2255   1.813       .  S
C2252      C2253   1.400       .  A
C2253      C2254   1.406       .  A
C2253      H2260   1.084       .  S
C2254      S2256   1.814       .  S
S2255      H2258   1.407       .  S
S2256      H2257   1.384       .  S
C2261      C2262   1.413       .  A
C2261      C2266   1.408       .  A
C2262      C2263   1.423       .  A
C2262      H2271   1.083       .  S
C2263      C2264   1.437       .  A
C2263      S2267   1.816       .  S
C2264      C2265   1.426       .  A
C2265      C2266   1.393       .  A
C2265      H2272   1.073       .  S
C2266      S2268   1.813       .  S
S2267      H2270   1.396       .  S
S2268      H2269   1.408       .  S
C2273      C2274   1.411       .  A
C2273      C2278   1.440       .  A
C2274      C2275   1.402       .  A
C2274      H2283   1.077       .  S
C2275      C2276   1.410       .  A
C2275      S2279   1.797       .  S
C2276      C2277   1.392       .  A
C2277      C2278   1.403       .  A
C2277      H2284   1.083       .  S
C2278      S2280   1.807       .  S
S2279      H2282   1.407       .  S
S2280      H2281   1.407       .  S
C2285      C2286   1.391       .  A
C2285      C2290   1.413       .  A
C2286      C2287   1.402       .  A
C2286      H2295   1.083       .  S
C2287      C2288   1.454       .  A
C2287      S2291   1.814       .  S
C2288      C2289   1.419       .  A
C2289      C2290   1.418       .  A
C2289      H2296   1.075       .  S
C2290      S2292   1.806       .  S
S2291      H2294   1.408       .  S
S2292      H2293   1.407       .  S
C2297      C2298   1.422       .  A
C2297      C2302   1.445       .  A
C2298      C2299   1.404       .  A
C2298      H2307   1.081       .  S
C2299      C2300   1.407       .  A
C2299      S2303   1.804       .  S
C2300      C2301   1.394       .  A
C2301      C2302   1.411       .  A
C2301      H2308   1.083       .  S
C2302      S2304   1.809       .  S
S2303      H2306   1.403       .  S
S2304      H2305   1.407       .  S
C2309      C2310   1.391       .  A
C2309      C2314   1.397       .  A
C2310      C2311   1.409       .  A
C2310      H2319   1.084       .  S
C2311      C2312   1.453       .  A
C2311      S2315   1.807       .  S
C2312      C2313   1.425       .  A
C2313      C2314   1.400       .  A
C2313      H2320   1.067       .  S
C2314      S2316   1.799       .  S
S2315      H2318   1.408       .  S
S2316      H2317   1.405       .  S
C2321      C2322   1.396       .  A
C2321      C2326   1.392       .  A
C2322      C2323   1.405       .  A
C2322      H2331   1.084       .  S
C2323      C2324   1.444       .  A
C2323      S2327   1.821       .  S
C2324      C2325   1.426       .  A
C2325      C2326   1.388       .  A
C2325      H2332   1.073       .  S
C2326      S2328   1.807       .  S
S2327      H2330   1.396       .  S
S2328      H2329   1.406       .  S
C2333      C2334   1.393       .  A
C2333      C2338   1.407       .  A
C2334      C2335   1.400       .  A
C2334      H2343   1.084       .  S
C2335      C2336   1.445       .  A
C2335      S2339   1.812       .  S
C2336      C2337   1.419       .  A
C2337      C2338   1.401       .  A
C2337      H2344   1.082       .  S
C2338      S2340   1.803       .  S
S2339      H2342   1.408       .  S
S2340      H2341   1.407       .  S
