geometry optimzed in LAMMPS
_audit_creation_date              2020-12-01 
_audit_creation_method            'lammps2cif' 
_symmetry_space_group_name_H-M    'P1' 
_symmetry_Int_Tables_number       1 
_symmetry_cell_setting            triclinic 
loop_ 
_symmetry_equiv_pos_as_xyz 
  x,y,z 
_cell_length_a                    97.79807622 
_cell_length_b                    97.76363095059428 
_cell_length_c                    97.81978148873547 
_cell_angle_alpha                 89.95776307242294 
_cell_angle_beta                  90.02124722894717 
_cell_angle_gamma                 89.97022541510714 
loop_ 
_atom_site_label 
_atom_site_type_symbol 
_atom_site_fract_x 
_atom_site_fract_y 
_atom_site_fract_z 
_atom_site_charge 
N1          N  0.64828858  0.63767825  0.60583784    -0.27400
N2          N  0.63827755  0.64674498  0.60518317    -0.35300
C3          C  0.64048099  0.65505743  0.59444044     0.00900
C4          C  0.65252193  0.65109285  0.58809781     0.06900
C5          C  0.65711790  0.64000553  0.59560085    -0.06200
H6          H  0.63339304  0.66286303  0.59105719     0.07600
H7          H  0.66598473  0.63371416  0.59346159     0.08800
Cu8        Cu  0.62147492  0.64662201  0.61814440     0.44200
Cu9        Cu  0.64890301  0.62142385  0.61936054     0.42000
Cu10       Cu  0.61980183  0.61772459  0.64129243     0.43900
N11         N  0.60585703  0.64360320  0.63219161    -0.34800
N12         N  0.60527649  0.63302394  0.64058770    -0.29100
C13         C  0.59418691  0.63421829  0.64860640    -0.05200
C14         C  0.58735485  0.64608213  0.64502155     0.07000
C15         C  0.59511840  0.65181735  0.63465332     0.00800
H16         H  0.59161961  0.62720346  0.65675823     0.08500
H17         H  0.59316905  0.66136414  0.62936118     0.07600
N18         N  0.63556985  0.60371672  0.64052670    -0.36300
N19         N  0.64637766  0.60508336  0.63255420    -0.28400
C20         C  0.65473400  0.59432286  0.63446639    -0.03700
C21         C  0.64878799  0.58570719  0.64399916     0.04900
C22         C  0.63672406  0.59207713  0.64772765     0.03000
H23         H  0.66436758  0.59283063  0.62923233     0.08100
H24         H  0.62942012  0.58866205  0.65529275     0.07000
N25         N  0.34554212  0.60320480  0.63671628    -0.27400
N26         N  0.35541328  0.60330752  0.64594080    -0.35300
C27         C  0.35337674  0.59283229  0.65467624     0.00900
C28         C  0.34155573  0.58597108  0.65081374     0.06900
C29         C  0.33705344  0.59273765  0.63924647    -0.06200
H30         H  0.35995563  0.59043837  0.66326296     0.07600
H31         H  0.32836775  0.59015621  0.63292628     0.08800
Cu32       Cu  0.37100637  0.61786946  0.64583133     0.44200
Cu33       Cu  0.34341401  0.61738000  0.62126433     0.42000
Cu34       Cu  0.36761179  0.64451510  0.61933703     0.43900
N35         N  0.38501052  0.63366536  0.64266180    -0.34800
N36         N  0.38374487  0.64318802  0.63311918    -0.29100
C37         C  0.39450053  0.65172014  0.63385144    -0.05200
C38         C  0.40306628  0.64736149  0.64425171     0.07000
C39         C  0.39661833  0.63595651  0.64970595     0.00800
H40         H  0.39601066  0.66045987  0.62721462     0.08500
H41         H  0.39992153  0.62991204  0.65835871     0.07600
N42         N  0.35081342  0.64313613  0.60640183    -0.36300
N43         N  0.34199091  0.63294480  0.60712254    -0.28400
C44         C  0.33261657  0.63435797  0.59719298    -0.03700
C45         C  0.33556960  0.64609833  0.58988188     0.04900
C46         C  0.34725526  0.65136964  0.59595065     0.03000
H47         H  0.32437156  0.62721312  0.59528976     0.08100
H48         H  0.35307582  0.66019082  0.59267351     0.07000
N49         N  0.46749388  0.68629425  0.67456367    -0.27400
N50         N  0.47459840  0.67776040  0.66686156    -0.35300
C51         C  0.46593416  0.67030207  0.65924521     0.00900
C52         C  0.45270278  0.67438853  0.66215277     0.06900
C53         C  0.45408122  0.68451998  0.67197365    -0.06200
H54         H  0.46903026  0.66221932  0.65234577     0.07600
H55         H  0.44593360  0.68972344  0.67734587     0.08800
Cu56       Cu  0.49569714  0.67598696  0.66755394     0.44200
Cu57       Cu  0.47650909  0.69907172  0.68899752     0.42000
Cu58       Cu  0.51389501  0.69811450  0.69054865     0.43900
N59         N  0.51677512  0.67591694  0.66961345    -0.34800
N60         N  0.52350859  0.68410995  0.67797045    -0.29100
C61         C  0.53698229  0.68155242  0.67689667    -0.05200
C62         C  0.53881593  0.67132748  0.66727236     0.07000
C63         C  0.52576467  0.66792939  0.66298697     0.00800
H64         H  0.54478456  0.68659811  0.68287574     0.08500
H65         H  0.52300379  0.66028402  0.65547599     0.07600
N66         N  0.50177546  0.71009000  0.70306496    -0.36300
N67         N  0.48825875  0.71035891  0.70269474    -0.28400
C68         C  0.48373420  0.71884357  0.71252999    -0.03700
C69         C  0.49492147  0.72402821  0.71950812     0.04900
C70         C  0.50618382  0.71839119  0.71307599     0.03000
H71         H  0.47305499  0.72097812  0.71455350     0.08100
H72         H  0.51683431  0.72026731  0.71535880     0.07000
N73         N  0.46518323  0.80451759  0.80400801    -0.27400
N74         N  0.47201975  0.81351887  0.81138706    -0.35300
C75         C  0.46314708  0.82154115  0.81809177     0.00900
C76         C  0.45003775  0.81754102  0.81465158     0.06900
C77         C  0.45170157  0.80658394  0.80582963    -0.06200
H78         H  0.46607246  0.82946557  0.82522316     0.07600
H79         H  0.44371173  0.80059726  0.80104827     0.08800
Cu80       Cu  0.49303816  0.81423312  0.81255070     0.44200
Cu81       Cu  0.47482006  0.79009770  0.79186854     0.42000
Cu82       Cu  0.51232753  0.78983553  0.79286941     0.43900
N83         N  0.51397548  0.81227455  0.81385343    -0.34800
N84         N  0.52117450  0.80333036  0.80674536    -0.29100
C85         C  0.53447547  0.80476333  0.80999997    -0.05200
C86         C  0.53564798  0.81500540  0.81975840     0.07000
C87         C  0.52242137  0.81957789  0.82182631     0.00800
H88         H  0.54267377  0.79905903  0.80527162     0.08500
H89         H  0.51914753  0.82766989  0.82862463     0.07600
N90         N  0.50055545  0.77781716  0.77982257    -0.36300
N91         N  0.48702915  0.77791036  0.77959135    -0.28400
C92         C  0.48263078  0.76932976  0.76981103    -0.03700
C93         C  0.49389978  0.76366944  0.76341086     0.04900
C94         C  0.50509000  0.76913459  0.77015961     0.03000
H95         H  0.47199118  0.76735041  0.76759776     0.08100
H96         H  0.51576824  0.76714539  0.76801872     0.07000
N97         N  0.64333473  0.85215021  0.88391558    -0.27400
N98         N  0.63352348  0.84285596  0.88408387    -0.35300
C99         C  0.63501440  0.83490546  0.89517535     0.00900
C100        C  0.64621628  0.83945810  0.90246833     0.06900
C101        C  0.65133032  0.85035760  0.89497998    -0.06200
H102        H  0.62833474  0.82647074  0.89780102     0.07600
H103        H  0.66032188  0.85637884  0.89723906     0.08800
Cu104      Cu  0.61827110  0.84136718  0.86957138     0.44200
Cu105      Cu  0.64533486  0.86670545  0.86854564     0.42000
Cu106      Cu  0.61856041  0.86626916  0.84260562     0.43900
N107        N  0.60321578  0.84256836  0.85482306    -0.34800
N108        N  0.60315782  0.85186937  0.84501832    -0.29100
C109        C  0.59190174  0.85015114  0.83730305    -0.05200
C110        C  0.58452125  0.83926555  0.84256422     0.07000
C111        C  0.59207357  0.83462490  0.85358016     0.00800
H112        H  0.58944025  0.85618707  0.82837331     0.08500
H113        H  0.58961702  0.82613378  0.86025213     0.07600
N114        N  0.63485624  0.87987284  0.84260389    -0.36300
N115        N  0.64458990  0.88003539  0.85199153    -0.28400
C116        C  0.65324143  0.89037895  0.84926109    -0.03700
C117        C  0.64881283  0.89699968  0.83753382     0.04900
C118        C  0.63705652  0.89011554  0.83368938     0.03000
H119        H  0.66178503  0.89320132  0.85567908     0.08100
H120        H  0.63042420  0.89253180  0.82515032     0.07000
N121        N  0.60830529  0.33928057  0.63593354    -0.27400
N122        N  0.60733084  0.34895866  0.64532790    -0.35300
C123        C  0.59643468  0.34632500  0.65328104     0.00900
C124        C  0.59034966  0.33435182  0.64879000     0.06900
C125        C  0.59809651  0.33024085  0.63769938    -0.06200
H126        H  0.59305970  0.35277450  0.66161311     0.07600
H127        H  0.59615295  0.32163100  0.63102742     0.08800
Cu128      Cu  0.62051629  0.36559821  0.64682981     0.44200
Cu129      Cu  0.62287889  0.33902893  0.62058252     0.42000
Cu130      Cu  0.64749057  0.36628735  0.62168473     0.43900
N131        N  0.63548689  0.38070993  0.64613375    -0.34800
N132        N  0.64546035  0.38070712  0.63702466    -0.29100
C133        C  0.65347466  0.39166497  0.63909081    -0.05200
C134        C  0.64820346  0.39913841  0.64988672     0.07000
C135        C  0.63688424  0.39176629  0.65422579     0.00800
H136        H  0.66252803  0.39392931  0.63316950     0.08500
H137        H  0.63003570  0.39437669  0.66251232     0.07600
N138        N  0.64707817  0.35162291  0.60644996    -0.36300
N139        N  0.63809409  0.34154281  0.60608213    -0.28400
C140        C  0.64037173  0.33392402  0.59487599    -0.03700
C141        C  0.65138800  0.33943845  0.58789780     0.04900
C142        C  0.65527788  0.35073872  0.59545792     0.03000
H143        H  0.63422906  0.32523571  0.59186606     0.08100
H144        H  0.66346007  0.35781987  0.59313104     0.07000
N145        N  0.68248108  0.52122402  0.68012642    -0.27400
N146        N  0.67443975  0.51416116  0.67189633    -0.35300
C147        C  0.66756597  0.52290284  0.66381118     0.00900
C148        C  0.67152051  0.53613284  0.66702681     0.06900
C149        C  0.68087151  0.53464234  0.67757303    -0.06200
H150        H  0.66019855  0.51983276  0.65613441     0.07600
H151        H  0.68591957  0.54266690  0.68325005     0.08800
Cu152      Cu  0.67295567  0.49299168  0.67232628     0.44200
Cu153      Cu  0.69549449  0.51224503  0.69418470     0.42000
Cu154      Cu  0.69517532  0.47508411  0.69598615     0.43900
N155        N  0.67281970  0.47192889  0.67502010    -0.34800
N156        N  0.68075207  0.46536582  0.68379515    -0.29100
C157        C  0.67826609  0.45185019  0.68285646    -0.05200
C158        C  0.66827756  0.44982687  0.67302003     0.07000
C159        C  0.66516714  0.46277427  0.66821077     0.00800
H160        H  0.68372699  0.44406100  0.68850390     0.08500
H161        H  0.65799462  0.46534108  0.66015565     0.07600
N162        N  0.70854296  0.48736772  0.70700785    -0.36300
N163        N  0.70846043  0.50088427  0.70646329    -0.28400
C164        C  0.71807051  0.50578126  0.71496468    -0.03700
C165        C  0.72445597  0.49483969  0.72125826     0.04900
C166        C  0.71828497  0.48331699  0.71584608     0.03000
H167        H  0.72031283  0.51652803  0.71634998     0.08100
H168        H  0.72055766  0.47274845  0.71832814     0.07000
N169        N  0.80355195  0.46801727  0.80650801    -0.27400
N170        N  0.81054365  0.47452514  0.81605277    -0.35300
C171        C  0.81666728  0.46525874  0.82418038     0.00900
C172        C  0.81351873  0.45231275  0.81938190     0.06900
C173        C  0.80504523  0.45446100  0.80825842    -0.06200
H174        H  0.82333023  0.46776035  0.83266110     0.07600
H175        H  0.80043692  0.44676880  0.80178562     0.08800
Cu176      Cu  0.81194189  0.49570301  0.81688845     0.44200
Cu177      Cu  0.79289531  0.47792253  0.79119558     0.42000
Cu178      Cu  0.79315993  0.51505905  0.79104579     0.43900
N179        N  0.81162605  0.51691664  0.81573850    -0.34800
N180        N  0.80479165  0.52397516  0.80643626    -0.29100
C181        C  0.80672739  0.53740936  0.80871469    -0.05200
C182        C  0.81504878  0.53890432  0.82008615     0.07000
C183        C  0.81809255  0.52566717  0.82413401     0.00800
H184        H  0.80235213  0.54551810  0.80254918     0.08500
H185        H  0.82476296  0.52256324  0.83238543     0.07600
N186        N  0.78229530  0.50324127  0.77712304    -0.36300
N187        N  0.78244905  0.48971915  0.77712449    -0.28400
C188        C  0.77411067  0.48510843  0.76723975    -0.03700
C189        C  0.76843867  0.49624524  0.76062575     0.04900
C190        C  0.77374450  0.50758193  0.76725192     0.03000
H191        H  0.77184141  0.47442900  0.76546872     0.08100
H192        H  0.77132169  0.51821405  0.76524149     0.07000
N193        N  0.85508265  0.64705948  0.88254584    -0.27400
N194        N  0.84471969  0.63838386  0.88244710    -0.35300
C195        C  0.83600178  0.64167880  0.89255120     0.00900
C196        C  0.84102933  0.65306052  0.89931162     0.06900
C197        C  0.85320059  0.65611079  0.89272046    -0.06200
H198        H  0.82705245  0.63575603  0.89520099     0.07600
H199        H  0.86038960  0.66410813  0.89539037     0.08800
Cu200      Cu  0.84323278  0.62185697  0.86926236     0.44200
Cu201      Cu  0.87183476  0.64556560  0.86956089     0.42000
Cu202      Cu  0.87078528  0.61762557  0.84516909     0.43900
N203        N  0.84377846  0.60635537  0.85482396    -0.34800
N204        N  0.85377080  0.60495936  0.84583604    -0.29100
C205        C  0.85101432  0.59420909  0.83772428    -0.05200
C206        C  0.83866705  0.58859570  0.84176887     0.07000
C207        C  0.83445175  0.59645705  0.85274518     0.00800
H208        H  0.85764015  0.59060217  0.82963395     0.08500
H209        H  0.82522130  0.59514736  0.85871466     0.07600
N210        N  0.88671491  0.63158787  0.84645493    -0.36300
N211        N  0.88722895  0.64166235  0.85545606    -0.28400
C212        C  0.89867359  0.64899938  0.85331150    -0.03700
C213        C  0.90568041  0.64326722  0.84243443     0.04900
C214        C  0.89774461  0.63232015  0.83829030     0.03000
H215        H  0.90137649  0.65817211  0.85887930     0.08100
H216        H  0.89971925  0.62552504  0.82977715     0.07000
N217        N  0.63497774  0.60758396  0.33965073    -0.27400
N218        N  0.64439683  0.60701681  0.34933139    -0.35300
C219        C  0.65259967  0.59623924  0.34699341     0.00900
C220        C  0.64822751  0.58975158  0.33520605     0.06900
C221        C  0.63692267  0.59713434  0.33091985    -0.06200
H222        H  0.66091547  0.59316132  0.35362023     0.07600
H223        H  0.63055096  0.59504515  0.32210783     0.08800
Cu224      Cu  0.64563252  0.62070164  0.36546741     0.44200
Cu225      Cu  0.61982114  0.62241955  0.33892985     0.42000
Cu226      Cu  0.62039603  0.64768309  0.36610284     0.43900
N227        N  0.64505647  0.63582493  0.38030841    -0.34800
N228        N  0.63591426  0.64578610  0.38043975    -0.29100
C229        C  0.63827126  0.65388441  0.39129331    -0.05200
C230        C  0.64950192  0.64883352  0.39829384     0.07000
C231        C  0.65343901  0.63729167  0.39110968     0.00800
H232        H  0.63203181  0.66258198  0.39406594     0.08500
H233        H  0.66180662  0.63043636  0.39356474     0.07600
N234        N  0.60570519  0.64715470  0.35080843    -0.36300
N235        N  0.60556421  0.63801844  0.34085163    -0.28400
C236        C  0.59452909  0.64019754  0.33293872    -0.03700
C237        C  0.58739978  0.65128659  0.33810788     0.04900
C238        C  0.59473181  0.65535065  0.34951353     0.03000
H239        H  0.59162565  0.63380371  0.32439458     0.08100
H240        H  0.59215680  0.66353869  0.35650036     0.07000
N241        N  0.68412210  0.68141320  0.52020199    -0.27400
N242        N  0.67693392  0.67191304  0.51382695    -0.35300
C243        C  0.67064115  0.66403762  0.52318450     0.00900
C244        C  0.67407181  0.66883371  0.53604738     0.06900
C245        C  0.68252653  0.67991809  0.53375703    -0.06200
H246        H  0.66372726  0.65574131  0.52078184     0.07600
H247        H  0.68711857  0.68648572  0.54139084     0.08800
Cu248      Cu  0.67550589  0.67064354  0.49272481     0.44200
Cu249      Cu  0.69572220  0.69604498  0.51030397     0.42000
Cu250      Cu  0.69631104  0.69486702  0.47350553     0.43900
N251        N  0.67579067  0.67184748  0.47156588    -0.34800
N252        N  0.68343669  0.68054262  0.46458593    -0.29100
C253        C  0.68122419  0.67863947  0.45115528    -0.05200
C254        C  0.67182911  0.66816428  0.44957082     0.07000
C255        C  0.66848496  0.66422998  0.46275929     0.00800
H256        H  0.68613033  0.68445215  0.44311516     0.08500
H257        H  0.66108239  0.65660490  0.46579452     0.07600
N258        N  0.70777283  0.70859038  0.48493653    -0.36300
N259        N  0.70747227  0.70900106  0.49843413    -0.28400
C260        C  0.71633906  0.71851774  0.50284058    -0.03700
C261        C  0.72244660  0.72451936  0.49158192     0.04900
C262        C  0.71683279  0.71789466  0.48038831     0.03000
H263        H  0.71840021  0.72071427  0.51349246     0.08100
H264        H  0.71952706  0.71931352  0.46975621     0.07000
N265        N  0.80840593  0.80517970  0.46615992    -0.27400
N266        N  0.81652062  0.81335261  0.47321480    -0.35300
C267        C  0.82362735  0.82125407  0.46449048     0.00900
C268        C  0.81971749  0.81805067  0.45125987     0.06900
C269        C  0.81015313  0.80766908  0.45273470    -0.06200
H270        H  0.83101379  0.82890749  0.46757505     0.07600
H271        H  0.80497693  0.80216000  0.44467356     0.08800
Cu272      Cu  0.81742100  0.81346627  0.49439246     0.44200
Cu273      Cu  0.79519191  0.79124168  0.47530829     0.42000
Cu274      Cu  0.79488847  0.79043963  0.51265553     0.43900
N275        N  0.81682544  0.81185478  0.51551859    -0.34800
N276        N  0.80865743  0.80344597  0.52224130    -0.29100
C277        C  0.81090643  0.80488833  0.53573695    -0.05200
C278        C  0.82109267  0.81456637  0.53759968     0.07000
C279        C  0.82444514  0.81887974  0.52453509     0.00800
H280        H  0.80556194  0.79924684  0.54362078     0.08500
H281        H  0.83167408  0.82676125  0.52173584     0.07600
N282        N  0.78249658  0.77831130  0.50040511    -0.36300
N283        N  0.78260072  0.77859466  0.48688558    -0.28400
C284        C  0.77329388  0.76963084  0.48217179    -0.03700
C285        C  0.76714535  0.76326637  0.49322547     0.04900
C286        C  0.77314743  0.76914713  0.50462302     0.03000
H287        H  0.77115656  0.76787072  0.47146106     0.08100
H288        H  0.77069025  0.76718284  0.51521992     0.07000
N289        N  0.88470320  0.84377805  0.63566509    -0.27400
N290        N  0.88414327  0.85335786  0.64516909    -0.35300
C291        C  0.89490903  0.85194406  0.65361822     0.00900
C292        C  0.90261497  0.84094404  0.64916919     0.06900
C293        C  0.89578078  0.83594675  0.63784755    -0.06200
H294        H  0.89679890  0.85827131  0.66248537     0.07600
H295        H  0.89866495  0.82725317  0.63163653     0.08800
Cu296      Cu  0.86860919  0.86768081  0.64622392     0.44200
Cu297      Cu  0.87032702  0.84176886  0.62026437     0.42000
Cu298      Cu  0.84203615  0.86614460  0.62051415     0.43900
N299        N  0.85259501  0.88145876  0.64501735    -0.34800
N300        N  0.84283181  0.88103072  0.63567967    -0.29100
C301        C  0.83440333  0.89177795  0.63754650    -0.05200
C302        C  0.83909061  0.89925792  0.64864597     0.07000
C303        C  0.85067855  0.89243482  0.65302517     0.00800
H304        H  0.82582130  0.89421325  0.63100499     0.08500
H305        H  0.85737558  0.89535470  0.66134059     0.07600
N306        N  0.84413766  0.85039915  0.60637519    -0.36300
N307        N  0.85451497  0.84171718  0.60618399    -0.28400
C308        C  0.85303986  0.83318822  0.59551118    -0.03700
C309        C  0.84106568  0.83651064  0.58875866     0.04900
C310        C  0.83574546  0.84754006  0.59586259     0.03000
H311        H  0.86020697  0.82517450  0.59282696     0.08100
H312        H  0.82665631  0.85334115  0.59334398     0.07000
N313        N  0.18466330  0.30878076  0.96473370    -0.27400
N314        N  0.17792720  0.31846750  0.97133764    -0.35300
C315        C  0.17082612  0.32597036  0.96223681     0.00900
C316        C  0.17321758  0.32073180  0.94930634     0.06900
C317        C  0.18192950  0.30977365  0.95130044    -0.06200
H318        H  0.16407423  0.33432745  0.96488881     0.07600
H319        H  0.18595338  0.30297464  0.94355135     0.08800
Cu320      Cu  0.17782878  0.32030584  0.99250044     0.44200
Cu321      Cu  0.19709264  0.29445872  0.97418321     0.42000
Cu322      Cu  0.19782920  0.29511255  0.01103481     0.43900
N323        N  0.17796183  0.31852759  0.01366941    -0.34800
N324        N  0.18524817  0.30932363  0.02039032    -0.29100
C325        C  0.18262464  0.31043863  0.03383491    -0.05200
C326        C  0.17329662  0.32092050  0.03570412     0.07000
C327        C  0.17047843  0.32571976  0.02268106     0.00800
H328        H  0.18683827  0.30377368  0.04159137     0.08500
H329        H  0.16335177  0.33375875  0.01993344     0.07600
N330        N  0.20908793  0.28150497  0.99938484    -0.36300
N331        N  0.20879657  0.28122770  0.98588376    -0.28400
C332        C  0.21722328  0.27131324  0.98142958    -0.03700
C333        C  0.22298664  0.26493489  0.99270070     0.04900
C334        C  0.21769642  0.27178574  0.00387960     0.03000
H335        H  0.21924710  0.26918490  0.97078967     0.08100
H336        H  0.21996879  0.26984114  0.01460684     0.07000
N337        N  0.30618056  0.18246822  0.96456656    -0.27400
N338        N  0.31539276  0.17513302  0.97124147    -0.35300
C339        C  0.32308868  0.16828038  0.96213605     0.00900
C340        C  0.31840275  0.17126793  0.94912091     0.06900
C341        C  0.30772020  0.18037327  0.95104765    -0.06200
H342        H  0.33144589  0.16149057  0.96480600     0.07600
H343        H  0.30166723  0.18530473  0.94320995     0.08800
Cu344      Cu  0.31708689  0.17455360  0.99245627     0.44200
Cu345      Cu  0.29217913  0.19530514  0.97411250     0.42000
Cu346      Cu  0.29386714  0.19616599  0.01117637     0.43900
N347        N  0.31663736  0.17560770  0.01371260    -0.34800
N348        N  0.30809923  0.18356559  0.02051854    -0.29100
C349        C  0.31013116  0.18184660  0.03400638    -0.05200
C350        C  0.32055347  0.17243331  0.03584064     0.07000
C351        C  0.32434338  0.16859793  0.02272537     0.00800
H352        H  0.30441000  0.18704902  0.04190614     0.08500
H353        H  0.33188756  0.16101254  0.01991367     0.07600
N354        N  0.28054227  0.20798025  0.99971270    -0.36300
N355        N  0.27990016  0.20773039  0.98621663    -0.28400
C356        C  0.27042970  0.21680001  0.98204887    -0.03700
C357        C  0.26495484  0.22317836  0.99344386     0.04900
C358        C  0.27149431  0.21716495  0.00447496     0.03000
H359        H  0.26785592  0.21877613  0.97142842     0.08100
H360        H  0.26974004  0.21915763  0.01519883     0.07000
N361        N  0.30872625  0.46663834  0.30010421    -0.27400
N362        N  0.31680305  0.47354637  0.30846252    -0.35300
C363        C  0.32357016  0.46461193  0.31645459     0.00900
C364        C  0.31967454  0.45149016  0.31282599     0.06900
C365        C  0.31017092  0.45318606  0.30250597    -0.06200
H366        H  0.33071545  0.46746229  0.32441809     0.07600
H367        H  0.30437624  0.44527230  0.29740872     0.08800
Cu368      Cu  0.31784887  0.49480929  0.30907931     0.44200
Cu369      Cu  0.29547054  0.47550769  0.28626919     0.42000
Cu370      Cu  0.29422674  0.51226309  0.28674294     0.43900
N371        N  0.31597818  0.51600853  0.30814802    -0.34800
N372        N  0.30711970  0.52230264  0.30010058    -0.29100
C373        C  0.30803527  0.53587450  0.30206691    -0.05200
C374        C  0.31809572  0.53830601  0.31168077     0.07000
C375        C  0.32285510  0.52546748  0.31540367     0.00800
H376        H  0.30188477  0.54343600  0.29679109     0.08500
H377        H  0.33055281  0.52315473  0.32299544     0.07600
N378        N  0.28222565  0.50037063  0.27410694    -0.36300
N379        N  0.28271805  0.48687083  0.27386297    -0.28400
C380        C  0.27354484  0.48221794  0.26476337    -0.03700
C381        C  0.26705531  0.49336474  0.25893252     0.04900
C382        C  0.27271333  0.50469113  0.26519485     0.03000
H383        H  0.27150222  0.47151718  0.26284580     0.08100
H384        H  0.27005725  0.51531813  0.26345664     0.07000
N385        N  0.18210432  0.51983649  0.17796110    -0.27400
N386        N  0.17468710  0.51273824  0.16918465    -0.35300
C387        C  0.16707897  0.52141196  0.16169791     0.00900
C388        C  0.16991956  0.53462595  0.16590299     0.06900
C389        C  0.17940269  0.53321749  0.17631364    -0.06200
H390        H  0.15970332  0.51827163  0.15406900     0.07600
H391        H  0.18393575  0.54133052  0.18233246     0.08800
Cu392      Cu  0.17468968  0.49157432  0.16832952     0.44200
Cu393      Cu  0.19511517  0.51091790  0.19206850     0.42000
Cu394      Cu  0.19634546  0.47359752  0.19211765     0.43900
N395        N  0.17523385  0.47047257  0.17007811    -0.34800
N396        N  0.18314638  0.46384180  0.17880024    -0.29100
C397        C  0.18064663  0.45035825  0.17777984    -0.05200
C398        C  0.17052861  0.44842473  0.16807108     0.07000
C399        C  0.16749516  0.46140153  0.16326712     0.00800
H400        H  0.18561162  0.44255244  0.18389512     0.08500
H401        H  0.16023554  0.46410271  0.15537728     0.07600
N402        N  0.20763977  0.48589817  0.20507227    -0.36300
N403        N  0.20709466  0.49941261  0.20518317    -0.28400
C404        C  0.21582238  0.50416140  0.21467339    -0.03700
C405        C  0.22209726  0.49309166  0.22086273     0.04900
C406        C  0.21675520  0.48170017  0.21444182     0.03000
H407        H  0.21783262  0.51487900  0.21651673     0.08100
H408        H  0.21946020  0.47110617  0.21629642     0.07000
N409        N  0.14355712  0.35094238  0.10446055    -0.27400
N410        N  0.13291601  0.34279399  0.10274221    -0.35300
C411        C  0.13474341  0.33542576  0.09127712     0.00900
C412        C  0.14706473  0.33924802  0.08541963     0.06900
C413        C  0.15242023  0.34899001  0.09415811    -0.06200
H414        H  0.12766443  0.32778316  0.08758730     0.07600
H415        H  0.16195339  0.35448761  0.09296255     0.08800
Cu416      Cu  0.11633157  0.34226056  0.11595109     0.44200
Cu417      Cu  0.14537335  0.36487188  0.12025962     0.42000
Cu418      Cu  0.11689935  0.36760565  0.14322665     0.43900
N419        N  0.10149833  0.34373977  0.13103702    -0.34800
N420        N  0.10175602  0.35297978  0.14089547    -0.29100
C421        C  0.09107529  0.35089137  0.14925905    -0.05200
C422        C  0.08363815  0.33986895  0.14442817     0.07000
C423        C  0.09062381  0.33552018  0.13289843     0.00800
H424        H  0.08896691  0.35688548  0.15831880     0.08500
H425        H  0.08831232  0.32672347  0.12659176     0.07600
N426        N  0.13366221  0.38053085  0.14394731    -0.36300
N427        N  0.14423872  0.37932290  0.13564104    -0.28400
C428        C  0.15326292  0.38931497  0.13836056    -0.03700
C429        C  0.14818255  0.39715797  0.14897997     0.04900
C430        C  0.13565802  0.39136649  0.15217075     0.03000
H431        H  0.16253917  0.39108222  0.13260328     0.08100
H432        H  0.12842889  0.39489741  0.15976489     0.07000
N433        N  0.51942797  0.30848136  0.30516746    -0.27400
N434        N  0.51284532  0.31766675  0.31255615    -0.35300
C435        C  0.52197942  0.32472415  0.32002353     0.00900
C436        C  0.53492969  0.31980532  0.31705303     0.06900
C437        C  0.53288117  0.30938627  0.30772966    -0.06200
H438        H  0.51940438  0.33294466  0.32697109     0.07600
H439        H  0.54054912  0.30283850  0.30319317     0.08800
Cu440      Cu  0.49176853  0.31987204  0.31206439     0.44200
Cu441      Cu  0.50995450  0.29536728  0.29170134     0.42000
Cu442      Cu  0.47311770  0.29652170  0.28967115     0.43900
N443        N  0.47063485  0.31909452  0.31058239    -0.34800
N444        N  0.46384591  0.31059121  0.30256043    -0.29100
C445        C  0.45035761  0.31242172  0.30451893    -0.05200
C446        C  0.44855604  0.32265856  0.31412787     0.07000
C447        C  0.46165195  0.32653806  0.31783886     0.00800
H448        H  0.44243313  0.30663813  0.29939139     0.08500
H449        H  0.46449857  0.33387597  0.32559480     0.07600
N450        N  0.48514946  0.28349061  0.27803644    -0.36300
N451        N  0.49864355  0.28325880  0.27871676    -0.28400
C452        C  0.50346814  0.27388780  0.26992484    -0.03700
C453        C  0.49247737  0.26775286  0.26354563     0.04900
C454        C  0.48101147  0.27416781  0.26882463     0.03000
H455        H  0.51419902  0.27158849  0.26842233     0.08100
H456        H  0.47045403  0.27232418  0.26606882     0.07000
N457        N  0.52147393  0.18672715  0.17883996    -0.27400
N458        N  0.51487660  0.17825632  0.17064224    -0.35300
C459        C  0.52410141  0.17117184  0.16328509     0.00900
C460        C  0.53710493  0.17550655  0.16694649     0.06900
C461        C  0.53499940  0.18527995  0.17694313    -0.06200
H462        H  0.52154158  0.16331639  0.15591918     0.07600
H463        H  0.54270284  0.19060941  0.18281066     0.08800
Cu464      Cu  0.49364988  0.17638660  0.17046098     0.44200
Cu465      Cu  0.51201202  0.19949365  0.19270685     0.42000
Cu466      Cu  0.47536725  0.19758037  0.19510823     0.43900
N467        N  0.47249061  0.17622042  0.17300102    -0.34800
N468        N  0.46593013  0.18390483  0.18198654    -0.29100
C469        C  0.45243687  0.18149469  0.18097793    -0.05200
C470        C  0.45034886  0.17171191  0.17098626     0.07000
C471        C  0.46329542  0.16869532  0.16605805     0.00800
H472        H  0.44469556  0.18651540  0.18708902     0.08500
H473        H  0.46585047  0.16177694  0.15781503     0.07600
N474        N  0.48715080  0.21080589  0.20669824    -0.36300
N475        N  0.50060817  0.21145405  0.20580570    -0.28400
C476        C  0.50526859  0.22093034  0.21458296    -0.03700
C477        C  0.49417538  0.22669076  0.22121228     0.04900
C478        C  0.48286725  0.21989889  0.21605958     0.03000
H479        H  0.51596282  0.22318519  0.21619250     0.08100
H480        H  0.47227965  0.22149296  0.21886994     0.07000
N481        N  0.35204436  0.14743110  0.10625001    -0.27400
N482        N  0.34302201  0.13738677  0.10547429    -0.35300
C483        C  0.33523424  0.13923527  0.09427647     0.00900
C484        C  0.33955965  0.15100357  0.08768944     0.06900
C485        C  0.35031984  0.15584481  0.09549406    -0.06200
H486        H  0.32724922  0.13232092  0.09098631     0.07600
H487        H  0.35646746  0.16483072  0.09348602     0.08800
Cu488      Cu  0.34203603  0.12132850  0.11938069     0.44200
Cu489      Cu  0.36643794  0.14921104  0.12177716     0.42000
Cu490      Cu  0.36726353  0.12190991  0.14660601     0.43900
N491        N  0.34320541  0.10666658  0.13473514    -0.34800
N492        N  0.35243266  0.10692031  0.14461276    -0.29100
C493        C  0.35045462  0.09612903  0.15289026    -0.05200
C494        C  0.33935583  0.08877391  0.14812058     0.07000
C495        C  0.33509829  0.09568286  0.13649462     0.00800
H496        H  0.35661273  0.09384839  0.16181457     0.08500
H497        H  0.32688483  0.09283614  0.12966454     0.07600
N498        N  0.38083632  0.13817193  0.14669462    -0.36300
N499        N  0.38038191  0.14833015  0.13778115    -0.28400
C500        C  0.39077067  0.15698033  0.14033335    -0.03700
C501        C  0.39811426  0.15202157  0.15138967     0.04900
C502        C  0.39157430  0.14002530  0.15507537     0.03000
H503        H  0.39319492  0.16583936  0.13416307     0.08100
H504        H  0.39459624  0.13297535  0.16307824     0.07000
N505        N  0.18331924  0.96575571  0.30823109    -0.27400
N506        N  0.17555845  0.97324324  0.31635721    -0.35300
C507        C  0.16780208  0.96500604  0.32411451     0.00900
C508        C  0.17094450  0.95161235  0.32089785     0.06900
C509        C  0.18070918  0.95246832  0.31065683    -0.06200
H510        H  0.16024752  0.96857847  0.33134667     0.07600
H511        H  0.18558181  0.94404646  0.30537778     0.08800
Cu512      Cu  0.17598661  0.99423596  0.31697225     0.44200
Cu513      Cu  0.19697390  0.97417207  0.29428622     0.42000
Cu514      Cu  0.19930370  0.01159884  0.29488175     0.43900
N515        N  0.17867522  0.01506832  0.31712385    -0.34800
N516        N  0.18719808  0.02163321  0.30898059    -0.29100
C517        C  0.18598667  0.03515794  0.31120071    -0.05200
C518        C  0.17628377  0.03711509  0.32133172     0.07000
C519        C  0.17185835  0.02414340  0.32478008     0.00800
H520        H  0.19127305  0.04295103  0.30538757     0.08500
H521        H  0.16394931  0.02149179  0.33205703     0.07600
N522        N  0.21037616  0.99913503  0.28189697    -0.36300
N523        N  0.20961415  0.98563022  0.28158866    -0.28400
C524        C  0.21825307  0.98091941  0.27196881    -0.03700
C525        C  0.22464169  0.99201198  0.26587301     0.04900
C526        C  0.21947890  0.00334772  0.27253679     0.03000
H527        H  0.21993373  0.97020289  0.26979911     0.08100
H528        H  0.22210918  0.01395187  0.27067308     0.07000
N529        N  0.30708332  0.02294859  0.18270375    -0.27400
N530        N  0.31543679  0.01608809  0.17458104    -0.35300
C531        C  0.32302006  0.02500954  0.16738879     0.00900
C532        C  0.31933295  0.03812365  0.17119566     0.06900
C533        C  0.30909753  0.03643834  0.18082056    -0.06200
H534        H  0.33044127  0.02214009  0.15971173     0.07600
H535        H  0.30352703  0.04443253  0.18607499     0.08800
Cu536      Cu  0.31597163  0.99493435  0.17310090     0.44200
Cu537      Cu  0.29322438  0.01364097  0.19582185     0.42000
Cu538      Cu  0.29128894  0.97661910  0.19322208     0.43900
N539        N  0.31434262  0.97378271  0.17310462    -0.34800
N540        N  0.30526508  0.96705507  0.18051228    -0.29100
C541        C  0.30690487  0.95354675  0.17847286    -0.05200
C542        C  0.31757602  0.95168269  0.16936959     0.07000
C543        C  0.32194918  0.96473932  0.16607347     0.00800
H544        H  0.30066937  0.94569658  0.18313813     0.08500
H545        H  0.33013806  0.96745986  0.15914491     0.07600
N546        N  0.27965790  0.98813568  0.20665105    -0.36300
N547        N  0.28043492  0.00158962  0.20773942    -0.28400
C548        C  0.27195394  0.00575074  0.21773199    -0.03700
C549        C  0.26566836  0.99433999  0.22332924     0.04900
C550        C  0.27068594  0.98339272  0.21590725     0.03000
H551        H  0.27038706  0.01632680  0.22055575     0.08100
H552        H  0.26818469  0.97268448  0.21730565     0.07000
N553        N  0.02184031  0.17670108  0.30366333    -0.27400
N554        N  0.01520646  0.16918403  0.31272158    -0.35300
C555        C  0.02429673  0.16296556  0.32093308     0.00900
C556        C  0.03727282  0.16683271  0.31688685     0.06900
C557        C  0.03533896  0.17543908  0.30583662    -0.06200
H558        H  0.02163771  0.15582075  0.32896194     0.07600
H559        H  0.04317709  0.18036499  0.29975673     0.08800
Cu560      Cu  0.99419780  0.16733205  0.31325689     0.44200
Cu561      Cu  0.01234016  0.18829232  0.28876891     0.42000
Cu562      Cu  0.97553723  0.18772705  0.28848824     0.43900
N563        N  0.97315904  0.16745937  0.31161281    -0.34800
N564        N  0.96636439  0.17485460  0.30256042    -0.29100
C565        C  0.95289738  0.17283774  0.30433825    -0.05200
C566        C  0.95114024  0.16361409  0.31492815     0.07000
C567        C  0.96420335  0.16054107  0.31939112     0.00800
H568        H  0.94500083  0.17802022  0.29858752     0.08500
H569        H  0.96700866  0.15379096  0.32772871     0.07600
N570        N  0.98709697  0.20021483  0.27590223    -0.36300
N571        N  0.00059849  0.20024241  0.27589159    -0.28400
C572        C  0.00505286  0.20966490  0.26695108    -0.03700
C573        C  0.99382038  0.21586174  0.26094339     0.04900
C574        C  0.98258970  0.20969431  0.26701416     0.03000
H575        H  0.01572092  0.21197848  0.26511923     0.08100
H576        H  0.97192901  0.21223757  0.26554447     0.07000
N577        N  0.02155414  0.30562897  0.18386536    -0.27400
N578        N  0.01421015  0.31403113  0.17622316    -0.35300
C579        C  0.02264629  0.32163436  0.16850792     0.00900
C580        C  0.03595347  0.31798414  0.17154621     0.06900
C581        C  0.03489775  0.30776328  0.18128901    -0.06200
H582        H  0.01931842  0.32917448  0.16108283     0.07600
H583        H  0.04318855  0.30196335  0.18582260     0.08800
Cu584      Cu  0.99307467  0.31446371  0.17606927     0.44200
Cu585      Cu  0.01294708  0.29112459  0.19672903     0.42000
Cu586      Cu  0.97554641  0.28991649  0.19694785     0.43900
N587        N  0.97202063  0.31267797  0.17663943    -0.34800
N588        N  0.96549508  0.30347258  0.18407426    -0.29100
C589        C  0.95195595  0.30482250  0.18196562    -0.05200
C590        C  0.94991364  0.31554885  0.17294660     0.07000
C591        C  0.96285424  0.32020718  0.16970109     0.00800
H592        H  0.94417494  0.29862725  0.18681551     0.08500
H593        H  0.96543885  0.32839770  0.16272373     0.07600
N594        N  0.98801874  0.27755544  0.20887432    -0.36300
N595        N  0.00153326  0.27778434  0.20863515    -0.28400
C596        C  0.00633326  0.26813835  0.21720019    -0.03700
C597        C  0.99531248  0.26166765  0.22333236     0.04900
C598        C  0.98388812  0.26785965  0.21768312     0.03000
H599        H  0.01705618  0.26578898  0.21848543     0.08100
H600        H  0.97329198  0.26543369  0.21975941     0.07000
N601        N  0.30474773  0.30553101  0.52272724    -0.27400
N602        N  0.31294410  0.31392215  0.51599987    -0.35300
C603        C  0.32044787  0.32101999  0.52508210     0.00900
C604        C  0.31694867  0.31674672  0.53811824     0.06900
C605        C  0.30689635  0.30697989  0.53623436    -0.06200
H606        H  0.32792379  0.32873712  0.52239826     0.07600
H607        H  0.30128918  0.30158255  0.54409262     0.08800
Cu608      Cu  0.31354751  0.31532809  0.49476143     0.44200
Cu609      Cu  0.29054967  0.29296318  0.51332593     0.42000
Cu610      Cu  0.28956920  0.29397532  0.47627470     0.43900
N611        N  0.31244674  0.31453868  0.47351039    -0.34800
N612        N  0.30375572  0.30668533  0.46676622    -0.29100
C613        C  0.30559632  0.30855561  0.45325274    -0.05200
C614        C  0.31582765  0.31819521  0.45134817     0.07000
C615        C  0.32001962  0.32161233  0.46445234     0.00800
H616        H  0.29998737  0.30313323  0.44541784     0.08500
H617        H  0.32791190  0.32887627  0.46721295     0.07600
N618        N  0.27620293  0.28245316  0.48817486    -0.36300
N619        N  0.27670297  0.28199044  0.50167539    -0.28400
C620        C  0.26704945  0.27333679  0.50624865    -0.03700
C621        C  0.25998745  0.26822221  0.49511727     0.04900
C622        C  0.26614300  0.27414372  0.48381598     0.03000
H623        H  0.26537518  0.27085212  0.51690433     0.08100
H624        H  0.26380302  0.27220667  0.47317607     0.07000
N625        N  0.18027111  0.18128938  0.52112172    -0.27400
N626        N  0.17181509  0.17331232  0.51424473    -0.35300
C627        C  0.16507378  0.16525966  0.52311924     0.00900
C628        C  0.16962247  0.16820518  0.53620434     0.06900
C629        C  0.17914908  0.17853483  0.53453246    -0.06200
H630        H  0.15737657  0.15782250  0.52025289     0.07600
H631        H  0.18459059  0.18396443  0.54247767     0.08800
Cu632      Cu  0.16990570  0.17386057  0.49314185     0.44200
Cu633      Cu  0.19285299  0.19567384  0.51205763     0.42000
Cu634      Cu  0.19299875  0.19699886  0.47522052     0.43900
N635        N  0.17075322  0.17583836  0.47205354    -0.34800
N636        N  0.17931454  0.18403837  0.46554851    -0.29100
C637        C  0.17752551  0.18254378  0.45200628    -0.05200
C638        C  0.16721808  0.17309854  0.44987881     0.07000
C639        C  0.16325318  0.16896614  0.46281558     0.00800
H640        H  0.18330272  0.18795528  0.44426915     0.08500
H641        H  0.15573916  0.16124836  0.46535599     0.07600
N642        N  0.20499869  0.20951295  0.48739426    -0.36300
N643        N  0.20493108  0.20898059  0.50089424    -0.28400
C644        C  0.21377718  0.21827626  0.50579986    -0.03700
C645        C  0.21977617  0.22493328  0.49485555     0.04900
C646        C  0.21385545  0.21922457  0.48334489     0.03000
H647        H  0.21557033  0.22014569  0.51655700     0.08100
H648        H  0.21593340  0.22184729  0.47279332     0.07000
N649        N  0.13628163  0.14594505  0.38035652    -0.27400
N650        N  0.14615492  0.13673720  0.38088943    -0.35300
C651        C  0.15417112  0.13936816  0.39172780     0.00900
C652        C  0.14915729  0.15086947  0.39827470     0.06900
C653        C  0.13772362  0.15467525  0.39085512    -0.06200
H654        H  0.16270996  0.13305297  0.39487350     0.07600
H655        H  0.13084139  0.16309233  0.39302491     0.08800
Cu656      Cu  0.14779187  0.12066608  0.36727568     0.44200
Cu657      Cu  0.12107085  0.14583889  0.36570511     0.42000
Cu658      Cu  0.12121616  0.11804933  0.34136520     0.43900
N659        N  0.14679569  0.10525624  0.35286151    -0.34800
N660        N  0.13708572  0.10428349  0.34350847    -0.29100
C661        C  0.13930197  0.09307846  0.33590340    -0.05200
C662        C  0.15088483  0.08661241  0.34079807     0.07000
C663        C  0.15545966  0.09468811  0.35144503     0.00800
H664        H  0.13300848  0.08999155  0.32734319     0.08500
H665        H  0.16434972  0.09291506  0.35783411     0.07600
N666        N  0.10673004  0.13341152  0.34145501    -0.36300
N667        N  0.10675101  0.14356624  0.35035877    -0.28400
C668        C  0.09592853  0.15165621  0.34796169    -0.03700
C669        C  0.08880059  0.14642157  0.33694313     0.04900
C670        C  0.09587361  0.13477057  0.33313337     0.03000
H671        H  0.09335154  0.16062281  0.35391960     0.08100
H672        H  0.09311868  0.12754614  0.32521697     0.07000
N673        N  0.35115955  0.34450890  0.38282204    -0.27400
N674        N  0.34106973  0.35353713  0.38276113    -0.35300
C675        C  0.33313220  0.35136894  0.39379777     0.00900
C676        C  0.33857060  0.34061012  0.40127375     0.06900
C677        C  0.34992174  0.33644446  0.39390717    -0.06200
H678        H  0.32413439  0.35732051  0.39630911     0.07600
H679        H  0.35668249  0.32801847  0.39627635     0.08800
Cu680      Cu  0.33869838  0.36875580  0.36797162     0.44200
Cu681      Cu  0.36627859  0.34322718  0.36793257     0.42000
Cu682      Cu  0.36517473  0.36903773  0.34214716     0.43900
N683        N  0.33998643  0.38340583  0.35251196    -0.34800
N684        N  0.34975263  0.38331537  0.34317640    -0.29100
C685        C  0.34815109  0.39405769  0.33479829    -0.05200
C686        C  0.33691812  0.40144175  0.33908237     0.07000
C687        C  0.33188701  0.39434618  0.35029954     0.00800
H688        H  0.35486129  0.39646044  0.32633326     0.08500
H689        H  0.32300223  0.39688995  0.35636650     0.07600
N690        N  0.37970996  0.35382300  0.34246809    -0.36300
N691        N  0.38013136  0.34411121  0.35184860    -0.28400
C692        C  0.39086355  0.33588243  0.34925489    -0.03700
C693        C  0.39744415  0.34069822  0.33766157     0.04900
C694        C  0.39014570  0.35214231  0.33372373     0.03000
H695        H  0.39391587  0.32734431  0.35560212     0.08100
H696        H  0.39235051  0.35886460  0.32520327     0.07000
N697        N  0.80574354  0.68234877  0.02130607    -0.27400
N698        N  0.81472883  0.67490147  0.01451025    -0.35300
C699        C  0.82163467  0.66699711  0.02341032     0.00900
C700        C  0.81666772  0.66954415  0.03642571     0.06900
C701        C  0.80669740  0.67943613  0.03469490    -0.06200
H702        H  0.82989885  0.66018222  0.02062835     0.07600
H703        H  0.80059402  0.68419915  0.04259644     0.08800
Cu704      Cu  0.81715959  0.67610703  0.99348493     0.44200
Cu705      Cu  0.79267203  0.69613917  0.01207508     0.42000
Cu706      Cu  0.79391826  0.69884102  0.97511882     0.43900
N707        N  0.81715018  0.67854181  0.97241929    -0.34800
N708        N  0.80866688  0.68665310  0.96567981    -0.29100
C709        C  0.81099907  0.68526176  0.95218724    -0.05200
C710        C  0.82154335  0.67595801  0.95034891     0.07000
C711        C  0.82508891  0.67183842  0.96341949     0.00800
H712        H  0.80529826  0.69051015  0.94425850     0.08500
H713        H  0.83250819  0.66411137  0.96620371     0.07600
N714        N  0.78038636  0.70987790  0.98737033    -0.36300
N715        N  0.78012674  0.70889657  0.00084289    -0.28400
C716        C  0.77068089  0.71752941  0.00583646    -0.03700
C717        C  0.76447142  0.72419906  0.99500342     0.04900
C718        C  0.77101006  0.71917623  0.98344790     0.03000
H719        H  0.76886724  0.71913367  0.01661553     0.08100
H720        H  0.76916570  0.72216199  0.97294779     0.07000
N721        N  0.68023217  0.80675935  0.02347713    -0.27400
N722        N  0.67159430  0.81415919  0.01616895    -0.35300
C723        C  0.66391284  0.82184080  0.02457242     0.00900
C724        C  0.66793368  0.81928477  0.03788346     0.06900
C725        C  0.67819899  0.80953215  0.03681596    -0.06200
H726        H  0.65581999  0.82858845  0.02121282     0.07600
H727        H  0.68384950  0.80487771  0.04514017     0.08800
Cu728      Cu  0.67039928  0.81347500  0.99512496     0.44200
Cu729      Cu  0.69437062  0.79346338  0.01456379     0.42000
Cu730      Cu  0.69311462  0.79122442  0.97698688     0.43900
N731        N  0.67041187  0.81159661  0.97412683    -0.34800
N732        N  0.67859780  0.80327090  0.96734247    -0.29100
C733        C  0.67633436  0.80481161  0.95385637    -0.05200
C734        C  0.66621633  0.81458789  0.95214358     0.07000
C735        C  0.66278946  0.81871444  0.96520283     0.00800
H736        H  0.68204868  0.79966494  0.94591487     0.08500
H737        H  0.65546879  0.82654347  0.96801765     0.07600
N738        N  0.70711789  0.78097955  0.98915919    -0.36300
N739        N  0.70756791  0.78161179  0.00266848    -0.28400
C740        C  0.71766948  0.77337777  0.00714060    -0.03700
C741        C  0.72398190  0.76745957  0.99592144     0.04900
C742        C  0.71692042  0.77243022  0.98472188     0.03000
H743        H  0.72016502  0.77171732  0.01779823     0.08100
H744        H  0.71845476  0.76967999  0.97412581     0.07000
N745        N  0.13609628  0.64020512  0.88377762    -0.27400
N746        N  0.14505080  0.63007415  0.88367474    -0.35300
C747        C  0.15306361  0.63102992  0.89480722     0.00900
C748        C  0.14886012  0.64224646  0.90234292     0.06900
C749        C  0.13816716  0.64786761  0.89497003    -0.06200
H750        H  0.16157148  0.62431081  0.89697521     0.07600
H751        H  0.13236448  0.65695540  0.89750267     0.08800
Cu752      Cu  0.14631173  0.61569998  0.86823506     0.44200
Cu753      Cu  0.12171082  0.64358299  0.86860651     0.42000
Cu754      Cu  0.12349746  0.62096037  0.83966280     0.43900
N755        N  0.14551154  0.60298731  0.85137596    -0.34800
N756        N  0.13719830  0.60495727  0.84090790    -0.29100
C757        C  0.13895356  0.59482103  0.83181698    -0.05200
C758        C  0.14899020  0.58614742  0.83671704     0.07000
C759        C  0.15281880  0.59155615  0.84921253     0.00800
H760        H  0.13327760  0.59380682  0.82236338     0.08500
H761        H  0.16010018  0.58732500  0.85639188     0.07600
N762        N  0.10938320  0.63654932  0.84141057    -0.36300
N763        N  0.10851132  0.64476080  0.85209258    -0.28400
C764        C  0.09753162  0.65289567  0.85057520    -0.03700
C765        C  0.09124738  0.64971341  0.83829708     0.04900
C766        C  0.09903885  0.63925153  0.83282085     0.03000
H767        H  0.09395870  0.66012104  0.85829651     0.08100
H768        H  0.09704434  0.63362969  0.82345844     0.07000
N769        N  0.60382343  0.13255478  0.84353098    -0.27400
N770        N  0.60349873  0.14195866  0.85323285    -0.35300
C771        C  0.59259960  0.15011445  0.85123355     0.00900
C772        C  0.58581955  0.14577849  0.83960470     0.06900
C773        C  0.59316319  0.13454444  0.83504808    -0.06200
H774        H  0.58984463  0.15863363  0.85774228     0.07600
H775        H  0.59078043  0.12810273  0.82638193     0.08800
Cu776      Cu  0.61787695  0.14332679  0.86875549     0.44200
Cu777      Cu  0.61854223  0.11720621  0.84259969     0.42000
Cu778      Cu  0.64369908  0.11682792  0.86996029     0.43900
N779        N  0.63342796  0.14271461  0.88316014    -0.34800
N780        N  0.64281717  0.13299871  0.88364090    -0.29100
C781        C  0.65136892  0.13553778  0.89410214    -0.05200
C782        C  0.64727749  0.14753465  0.90043094     0.07000
C783        C  0.63576488  0.15169531  0.89329998     0.00800
H784        H  0.65977054  0.12895842  0.89702086     0.08500
H785        H  0.62955394  0.16064374  0.89530366     0.07600
N786        N  0.64296247  0.10236667  0.85447704    -0.36300
N787        N  0.63389194  0.10257341  0.84445388    -0.28400
C788        C  0.63619609  0.09184654  0.83617161    -0.03700
C789        C  0.64732692  0.08458585  0.84111359     0.04900
C790        C  0.65125634  0.09150347  0.85283351     0.03000
H791        H  0.63018288  0.08949041  0.82718035     0.08100
H792        H  0.65931414  0.08870702  0.85986307     0.07000
N793        N  0.30469332  0.52071479  0.68174775    -0.27400
N794        N  0.31357078  0.51383674  0.67422147    -0.35300
C795        C  0.32205497  0.52271454  0.66804855     0.00900
C796        C  0.31842853  0.53581977  0.67195121     0.06900
C797        C  0.30726375  0.53417335  0.68049073    -0.06200
H798        H  0.33017473  0.51981915  0.66112842     0.07600
H799        H  0.30154977  0.54217199  0.68558461     0.08800
Cu800      Cu  0.31423531  0.49270423  0.67297617     0.44200
Cu801      Cu  0.28995132  0.51148623  0.69392303     0.42000
Cu802      Cu  0.29205997  0.47443828  0.69590104     0.43900
N803        N  0.31422523  0.47160562  0.67481832    -0.34800
N804        N  0.30624945  0.46489108  0.68340070    -0.29100
C805        C  0.30880456  0.45142088  0.68228596    -0.05200
C806        C  0.31898614  0.44955631  0.67261212     0.07000
C807        C  0.32203857  0.46260130  0.66798377     0.00800
H808        H  0.30359302  0.44355275  0.68806995     0.08500
H809        H  0.32915092  0.46537935  0.65999072     0.07600
N810        N  0.27828781  0.48610531  0.70698575    -0.36300
N811        N  0.27735119  0.49957344  0.70617404    -0.28400
C812        C  0.26752880  0.50389073  0.71478333    -0.03700
C813        C  0.26195729  0.49257380  0.72124295     0.04900
C814        C  0.26913100  0.48150918  0.71613303     0.03000
H815        H  0.26497961  0.51451016  0.71653001     0.08100
H816        H  0.26785085  0.47086942  0.71893013     0.07000
N817        N  0.17833350  0.46374012  0.80325382    -0.27400
N818        N  0.16880052  0.47033589  0.81020870    -0.35300
C819        C  0.16111531  0.46115759  0.81699324     0.00900
C820        C  0.16619131  0.44820905  0.81430174     0.06900
C821        C  0.17698076  0.45024618  0.80541181    -0.06200
H822        H  0.15265317  0.46373778  0.82363781     0.07600
H823        H  0.18337415  0.44251342  0.80077348     0.08800
Cu824      Cu  0.16712166  0.49150315  0.81063461     0.44200
Cu825      Cu  0.19308097  0.47304403  0.79132441     0.42000
Cu826      Cu  0.19318616  0.50952557  0.79116032     0.43900
N827        N  0.16901570  0.51264290  0.80999814    -0.34800
N828        N  0.17871115  0.51908539  0.80312376    -0.29100
C829        C  0.17752198  0.53260271  0.80520305    -0.05200
C830        C  0.16643081  0.53482076  0.81363110     0.07000
C831        C  0.16132179  0.52194968  0.81657752     0.00800
H832        H  0.18425336  0.54025972  0.80087905     0.08500
H833        H  0.15287792  0.51949647  0.82328751     0.07600
N834        N  0.20639208  0.49796215  0.77949806    -0.36300
N835        N  0.20651037  0.48445903  0.77967268    -0.28400
C836        C  0.21599232  0.47994251  0.77080997    -0.03700
C837        C  0.22214969  0.49119389  0.76481286     0.04900
C838        C  0.21571386  0.50243542  0.77046966     0.03000
H839        H  0.21788903  0.46928433  0.76855259     0.08100
H840        H  0.21756422  0.51309632  0.76808381     0.07000
N841        N  0.38486952  0.34389784  0.63341107    -0.27400
N842        N  0.38479696  0.35316384  0.64323931    -0.35300
C843        C  0.39558166  0.35103927  0.65149332     0.00900
C844        C  0.40276141  0.33980265  0.64673789     0.06900
C845        C  0.39574399  0.33563992  0.63514559    -0.06200
H846        H  0.39793427  0.35714536  0.66041248     0.07600
H847        H  0.39841253  0.32735615  0.62832877     0.08800
Cu848      Cu  0.36988493  0.36806030  0.64524023     0.44200
Cu849      Cu  0.36988872  0.34269737  0.61838695     0.42000
Cu850      Cu  0.34070436  0.36543410  0.62277365     0.43900
N851        N  0.35331023  0.38121262  0.64600290    -0.34800
N852        N  0.34245400  0.38009584  0.63803278    -0.29100
C853        C  0.33367623  0.39027987  0.64098450    -0.05200
C854        C  0.33926057  0.39814118  0.65136618     0.07000
C855        C  0.35176666  0.39214122  0.65418057     0.00800
H856        H  0.32421127  0.39214440  0.63556201     0.08500
H857        H  0.35929224  0.39556917  0.66154570     0.07600
N858        N  0.34243093  0.35126376  0.60705217    -0.36300
N859        N  0.35306877  0.34306936  0.60539187    -0.28400
C860        C  0.35113195  0.33548410  0.59408417    -0.03700
C861        C  0.33878450  0.33920126  0.58824420     0.04900
C862        C  0.33349262  0.34914979  0.59680865     0.03000
H863        H  0.35831326  0.32798222  0.59024401     0.08100
H864        H  0.32386785  0.35446834  0.59570107     0.07000
N865        N  0.46743876  0.30525901  0.68088730    -0.27400
N866        N  0.47463959  0.31291846  0.67239970    -0.35300
C867        C  0.46610328  0.32112489  0.66539173     0.00900
C868        C  0.45289545  0.31845050  0.66967018     0.06900
C869        C  0.45410559  0.30825609  0.67940097    -0.06200
H870        H  0.46924129  0.32818212  0.65746636     0.07600
H871        H  0.44588794  0.30331932  0.68493221     0.08800
Cu872      Cu  0.49563835  0.31132598  0.67037572     0.44200
Cu873      Cu  0.47616828  0.29117993  0.69407908     0.42000
Cu874      Cu  0.51338471  0.28809653  0.69300101     0.43900
N875        N  0.51664625  0.30885990  0.67059727    -0.34800
N876        N  0.52323950  0.30048389  0.67891421    -0.29100
C877        C  0.53677900  0.30215475  0.67711921    -0.05200
C878        C  0.53876944  0.31220025  0.66733108     0.07000
C879        C  0.52576949  0.31603057  0.66327003     0.00800
H880        H  0.54460128  0.29684496  0.68291270     0.08500
H881        H  0.52308001  0.32364861  0.65571293     0.07600
N882        N  0.50093238  0.27774029  0.70666223    -0.36300
N883        N  0.48745813  0.27877634  0.70700871    -0.28400
C884        C  0.48259007  0.27062975  0.71695909    -0.03700
C885        C  0.49354434  0.26428069  0.72331173     0.04900
C886        C  0.50498159  0.26894982  0.71640783     0.03000
H887        H  0.47184589  0.26916393  0.71907604     0.08100
H888        H  0.51552643  0.26609930  0.71828534     0.07000
N889        N  0.46499172  0.17764639  0.80098933    -0.27400
N890        N  0.47146901  0.16824619  0.80823243    -0.35300
C891        C  0.46218887  0.16003679  0.81418528     0.00900
C892        C  0.44926007  0.16445316  0.81042721     0.06900
C893        C  0.45145098  0.17570829  0.80215414    -0.06200
H894        H  0.46467719  0.15187390  0.82123039     0.07600
H895        H  0.44375080  0.18219882  0.79751723     0.08800
Cu896      Cu  0.49254941  0.16769353  0.81053087     0.44200
Cu897      Cu  0.47471635  0.19297907  0.79027086     0.42000
Cu898      Cu  0.51172028  0.19295990  0.79145851     0.43900
N899        N  0.51359343  0.16997368  0.81192578    -0.34800
N900        N  0.52063300  0.17905345  0.80480061    -0.29100
C901        C  0.53396999  0.17782437  0.80794482    -0.05200
C902        C  0.53537224  0.16763206  0.81768031     0.07000
C903        C  0.52224804  0.16280443  0.81986775     0.00800
H904        H  0.54205338  0.18395814  0.80352729     0.08500
H905        H  0.51922340  0.15449941  0.82651477     0.07600
N906        N  0.50023667  0.20641048  0.77971526    -0.36300
N907        N  0.48672618  0.20650088  0.77944104    -0.28400
C908        C  0.48244229  0.21612703  0.77061679    -0.03700
C909        C  0.49380012  0.22228291  0.76490769     0.04900
C910        C  0.50491424  0.21600183  0.77105439     0.03000
H911        H  0.47182221  0.21817707  0.76819676     0.08100
H912        H  0.51561628  0.21816783  0.76933745     0.07000
N913        N  0.68310030  0.18361341  0.02065360    -0.27400
N914        N  0.67429021  0.17574623  0.01409260    -0.35300
C915        C  0.66701702  0.16854340  0.02326766     0.00900
C916        C  0.67158367  0.17187714  0.03623383     0.06900
C917        C  0.68173027  0.18154946  0.03419502    -0.06200
H918        H  0.65904172  0.16130474  0.02068314     0.07600
H919        H  0.68754294  0.18684840  0.04196071     0.08800
Cu920      Cu  0.67283493  0.17490603  0.99294932     0.44200
Cu921      Cu  0.69663845  0.19658691  0.01071338     0.42000
Cu922      Cu  0.69782096  0.19417070  0.97352309     0.43900
N923        N  0.67370740  0.17508675  0.97175721    -0.34800
N924        N  0.68292431  0.18194739  0.96463693    -0.29100
C925        C  0.68075754  0.17975205  0.95122875    -0.05200
C926        C  0.66951732  0.17125593  0.94984199     0.07000
C927        C  0.66541687  0.16839053  0.96308124     0.00800
H928        H  0.68684411  0.18411266  0.94308524     0.08500
H929        H  0.65717212  0.16172214  0.96621674     0.07600
N930        N  0.71083778  0.20635892  0.98502571    -0.36300
N931        N  0.71018711  0.20742040  0.99848709    -0.28400
C932        C  0.71953610  0.21656226  0.00269712    -0.03700
C933        C  0.72653732  0.22139897  0.99138964     0.04900
C934        C  0.72066695  0.21477285  0.98034035     0.03000
H935        H  0.72102508  0.21959335  0.01323485     0.08100
H936        H  0.72295506  0.21634828  0.96963525     0.07000
N937        N  0.80590387  0.30654814  0.02152528    -0.27400
N938        N  0.81353079  0.31566418  0.01511129    -0.35300
C939        C  0.82068181  0.32284280  0.02438132     0.00900
C940        C  0.81735180  0.31811224  0.03730842     0.06900
C941        C  0.80803994  0.30765451  0.03506999    -0.06200
H942        H  0.82783416  0.33092566  0.02187771     0.07600
H943        H  0.80339543  0.30108228  0.04264937     0.08800
Cu944      Cu  0.81430902  0.31747554  0.99403837     0.44200
Cu945      Cu  0.79306582  0.29304097  0.01140238     0.42000
Cu946      Cu  0.79294432  0.29443918  0.97425319     0.43900
N947        N  0.81453028  0.31638490  0.97290465    -0.34800
N948        N  0.80674779  0.30803399  0.96567589    -0.29100
C949        C  0.80963502  0.30965778  0.95233457    -0.05200
C950        C  0.81987804  0.31936415  0.95111789     0.07000
C951        C  0.82259207  0.32350908  0.96436662     0.00800
H952        H  0.80450409  0.30427882  0.94416013     0.08500
H953        H  0.83002988  0.33105056  0.96759789     0.07600
N954        N  0.78083247  0.28124659  0.98558224    -0.36300
N955        N  0.78083088  0.28084831  0.99909671    -0.28400
C956        C  0.77184957  0.27133558  0.00329181    -0.03700
C957        C  0.76586820  0.26549889  0.99188737     0.04900
C958        C  0.77191480  0.27191195  0.98082678     0.03000
H959        H  0.76996886  0.26873050  0.01387776     0.08100
H960        H  0.76989830  0.27001571  0.97011253     0.07000
N961        N  0.63606730  0.10934351  0.14546104    -0.27400
N962        N  0.64530248  0.10865293  0.13561722    -0.35300
C963        C  0.65282190  0.09724919  0.13737612     0.00900
C964        C  0.64799539  0.09038668  0.14880637     0.06900
C965        C  0.63748435  0.09845704  0.15374322    -0.06200
H966        H  0.66119936  0.09421942  0.13082730     0.07600
H967        H  0.63109784  0.09639653  0.16254290     0.08800
Cu968      Cu  0.64690953  0.12304113  0.12000183     0.44200
Cu969      Cu  0.62139318  0.12454121  0.14687079     0.42000
Cu970      Cu  0.62228472  0.15093542  0.12117012     0.43900
N971        N  0.64578514  0.13851913  0.10541728    -0.34800
N972        N  0.63687419  0.14868572  0.10592446    -0.29100
C973        C  0.63859797  0.15674280  0.09490613    -0.05200
C974        C  0.64900787  0.15133743  0.08697294     0.07000
C975        C  0.65342199  0.13987414  0.09405284     0.00800
H976        H  0.63275323  0.16591184  0.09291152     0.08500
H977        H  0.66147702  0.13289174  0.09104338     0.07600
N978        N  0.60731898  0.14971768  0.13616153    -0.36300
N979        N  0.60690420  0.13991692  0.14546311    -0.28400
C980        C  0.59555671  0.14142281  0.15307950    -0.03700
C981        C  0.58841754  0.15267169  0.14827170     0.04900
C982        C  0.59627018  0.15777043  0.13765638     0.03000
H983        H  0.59273596  0.13479444  0.16146781     0.08100
H984        H  0.59390864  0.16647756  0.13121677     0.07000
N985        N  0.67903127  0.02433684  0.18456896    -0.27400
N986        N  0.67082911  0.01757347  0.17622018    -0.35300
C987        C  0.66361295  0.02660559  0.16875577     0.00900
C988        C  0.66729246  0.03969711  0.17269727     0.06900
C989        C  0.67720160  0.03784840  0.18266022    -0.06200
H990        H  0.65615438  0.02383599  0.16104865     0.07600
H991        H  0.68291082  0.04572216  0.18792563     0.08800
Cu992      Cu  0.66967920  0.99636640  0.17537863     0.44200
Cu993      Cu  0.69260346  0.01489244  0.19792376     0.42000
Cu994      Cu  0.69263093  0.97771188  0.19739385     0.43900
N995        N  0.66999496  0.97515384  0.17674468    -0.34800
N996        N  0.67832675  0.96831707  0.18490798    -0.29100
C997        C  0.67617997  0.95482054  0.18327253    -0.05200
C998        C  0.66594734  0.95305940  0.17363924     0.07000
C999        C  0.66236423  0.96618325  0.16965568     0.00800
H1000       H  0.68200517  0.94690010  0.18834692     0.08500
H1001       H  0.65485353  0.96900528  0.16201263     0.07600
N1002       N  0.70576573  0.98936514  0.20924220    -0.36300
N1003       N  0.70569248  0.00288254  0.20959435    -0.28400
C1004       C  0.71546771  0.00715032  0.21827843    -0.03700
C1005       C  0.72191800  0.99577824  0.22376089     0.04900
C1006       C  0.71559145  0.98469202  0.21764242     0.03000
H1007       H  0.71773975  0.01778159  0.22042664     0.08100
H1008       H  0.71813098  0.97399697  0.21890389     0.07000
N1009       N  0.80421427  0.02174674  0.30726097    -0.27400
N1010       N  0.81112255  0.01444239  0.31630354    -0.35300
C1011       C  0.81757752  0.02294483  0.32494808     0.00900
C1012       C  0.81438932  0.03623418  0.32131729     0.06900
C1013       C  0.80596493  0.03510971  0.31000688    -0.06200
H1014       H  0.82423343  0.01968927  0.33318838     0.07600
H1015       H  0.80182184  0.04337628  0.30392939     0.08800
Cu1016     Cu  0.81165184  0.99328724  0.31637280     0.44200
Cu1017     Cu  0.79334948  0.01314368  0.29124533     0.42000
Cu1018     Cu  0.79476984  0.97590188  0.28866560     0.43900
N1019       N  0.81090654  0.97221526  0.31459857    -0.34800
N1020       N  0.80498123  0.96577577  0.30431077    -0.29100
C1021       C  0.80679685  0.95222381  0.30591634    -0.05200
C1022       C  0.81407300  0.95003308  0.31788647     0.07000
C1023       C  0.81658596  0.96296821  0.32304254     0.00800
H1024       H  0.80321275  0.94452848  0.29881412     0.08500
H1025       H  0.82258558  0.96553592  0.33196750     0.07600
N1026       N  0.78344270  0.98838074  0.27571824    -0.36300
N1027       N  0.78290837  0.00186531  0.27666754    -0.28400
C1028       C  0.77377526  0.00665680  0.26756716    -0.03700
C1029       C  0.76831861  0.99568281  0.26049677     0.04900
C1030       C  0.77462726  0.98426409  0.26601557     0.03000
H1031       H  0.77074496  0.01728851  0.26675643     0.08100
H1032       H  0.77256090  0.97366405  0.26352546     0.07000
N1033       N  0.64204874  0.88509404  0.13565135    -0.27400
N1034       N  0.63329823  0.88436180  0.14592420    -0.35300
C1035       C  0.63538575  0.89500833  0.15436607     0.00900
C1036       C  0.64585936  0.90296423  0.14912785     0.06900
C1037       C  0.64994468  0.89625047  0.13731814    -0.06200
H1038       H  0.62952541  0.89695111  0.16354837     0.07600
H1039       H  0.65814455  0.89913622  0.13049394     0.08800
Cu1040     Cu  0.61863873  0.86915993  0.14792930     0.44200
Cu1041     Cu  0.64266694  0.87094427  0.11973873     0.42000
Cu1042     Cu  0.61741471  0.84358077  0.12141043     0.43900
N1043       N  0.60451523  0.85333554  0.14761605    -0.34800
N1044       N  0.60409382  0.84387262  0.13798032    -0.29100
C1045       C  0.59362266  0.83531770  0.14057684    -0.05200
C1046       C  0.58716500  0.83959021  0.15244262     0.07000
C1047       C  0.59428871  0.85111667  0.15653158     0.00800
H1048       H  0.59062367  0.82692450  0.13402104     0.08500
H1049       H  0.59207312  0.85754627  0.16525243     0.07600
N1050       N  0.63199777  0.84533862  0.10603616    -0.36300
N1051       N  0.64113567  0.85528875  0.10536765    -0.28400
C1052       C  0.64904062  0.85332650  0.09427484    -0.03700
C1053       C  0.64481732  0.84148474  0.08773635     0.04900
C1054       C  0.63388458  0.83679433  0.09542088     0.03000
H1055       H  0.65739453  0.85994835  0.09127585     0.08100
H1056       H  0.62761536  0.82791187  0.09337899     0.07000
N1057       N  0.18245385  0.67832786  0.96669128    -0.27400
N1058       N  0.17454227  0.66985732  0.97363261    -0.35300
C1059       C  0.16758575  0.66197738  0.96478994     0.00900
C1060       C  0.17117446  0.66579127  0.95164989     0.06900
C1061       C  0.18074264  0.67608516  0.95325265    -0.06200
H1062       H  0.16028482  0.65417891  0.96771397     0.07600
H1063       H  0.18621004  0.68145661  0.94527775     0.08800
Cu1064     Cu  0.17342740  0.66958314  0.99475163     0.44200
Cu1065     Cu  0.19529615  0.69244337  0.97574360     0.42000
Cu1066     Cu  0.19559361  0.69312842  0.01276133     0.43900
N1067       N  0.17393266  0.67150889  0.01581086    -0.34800
N1068       N  0.18205525  0.68004356  0.02242015    -0.29100
C1069       C  0.17984821  0.67877248  0.03592723    -0.05200
C1070       C  0.16971374  0.66908637  0.03790772     0.07000
C1071       C  0.16632827  0.66460996  0.02492309     0.00800
H1072       H  0.18541815  0.68434486  0.04371572     0.08500
H1073       H  0.15879679  0.65692347  0.02226928     0.07600
N1074       N  0.20791805  0.70534145  0.00065213    -0.36300
N1075       N  0.20791478  0.70497646  0.98714102    -0.28400
C1076       C  0.21716323  0.71396402  0.98239731    -0.03700
C1077       C  0.22325163  0.72026762  0.99347158     0.04900
C1078       C  0.21707097  0.71467552  0.00487121     0.03000
H1079       H  0.21911820  0.71593488  0.97168653     0.08100
H1080       H  0.21910259  0.71718037  0.01546195     0.07000
N1081       N  0.30469996  0.80400806  0.02142277    -0.27400
N1082       N  0.31408642  0.81088667  0.01456631    -0.35300
C1083       C  0.32196305  0.81779749  0.02344799     0.00900
C1084       C  0.31743957  0.81508015  0.03658931     0.06900
C1085       C  0.30636579  0.80637349  0.03488292    -0.06200
H1086       H  0.33042131  0.82432686  0.02053920     0.07600
H1087       H  0.29978541  0.80229711  0.04277508     0.08800
Cu1088     Cu  0.31579291  0.81059004  0.99344087     0.44200
Cu1089     Cu  0.29024897  0.79169566  0.01191125     0.42000
Cu1090     Cu  0.29422574  0.78747933  0.97477952     0.43900
N1091       N  0.31628096  0.80861107  0.97234751    -0.34800
N1092       N  0.30853542  0.79998768  0.96541913    -0.29100
C1093       C  0.31099751  0.80156392  0.95196345    -0.05200
C1094       C  0.32083399  0.81164895  0.95036999     0.07000
C1095       C  0.32384359  0.81591728  0.96352298     0.00800
H1096       H  0.30554879  0.79623575  0.94395515     0.08500
H1097       H  0.33084511  0.82397385  0.96646450     0.07600
N1098       N  0.27974283  0.77742486  0.98652931    -0.36300
N1099       N  0.27807736  0.77916916  0.99983886    -0.28400
C1100       C  0.26783922  0.77106822  0.00414947    -0.03700
C1101       C  0.26279170  0.76394016  0.99302404     0.04900
C1102       C  0.27066543  0.76813062  0.98206350     0.03000
H1103       H  0.26468492  0.77005729  0.01470010     0.08100
H1104       H  0.26994463  0.76457751  0.97160836     0.07000
N1105       N  0.10264485  0.63402943  0.14469519    -0.27400
N1106       N  0.10343573  0.64401802  0.13559503    -0.35300
C1107       C  0.09287626  0.65262610  0.13743339     0.00900
C1108       C  0.08492311  0.64779295  0.14807439     0.06900
C1109       C  0.09148079  0.63602075  0.15251314    -0.06200
H1110       H  0.09099922  0.66166958  0.13130464     0.07600
H1111       H  0.08846841  0.62946525  0.16089282     0.08800
Cu1112     Cu  0.11846855  0.64555742  0.12068822     0.44200
Cu1113     Cu  0.11679045  0.61813851  0.14607601     0.42000
Cu1114     Cu  0.14351806  0.61881141  0.12035514     0.43900
N1115       N  0.13395208  0.64438629  0.10622552    -0.34800
N1116       N  0.14310971  0.63444930  0.10614205    -0.29100
C1117       C  0.15141452  0.63606565  0.09533053    -0.05200
C1118       C  0.14719828  0.64749855  0.08813116     0.07000
C1119       C  0.13620715  0.65263240  0.09543568     0.00800
H1120       H  0.15985368  0.62934176  0.09287495     0.08500
H1121       H  0.13004208  0.66148591  0.09286301     0.07600
N1122       N  0.14201692  0.60397976  0.13534260    -0.36300
N1123       N  0.13236793  0.60365369  0.14479817    -0.28400
C1124       C  0.13431294  0.59255650  0.15273388    -0.03700
C1125       C  0.14578621  0.58563863  0.14807094     0.04900
C1126       C  0.15030191  0.59314522  0.13697232     0.03000
H1127       H  0.12761224  0.58954777  0.16099714     0.08100
H1128       H  0.15896891  0.59085731  0.13047694     0.07000
N1129       N  0.01949349  0.68641167  0.17733475    -0.27400
N1130       N  0.01290719  0.67802172  0.16903746    -0.35300
C1131       C  0.02209446  0.67027030  0.16236713     0.00900
C1132       C  0.03510941  0.67400015  0.16656740     0.06900
C1133       C  0.03302430  0.68420238  0.17616895    -0.06200
H1134       H  0.01947788  0.66236711  0.15507637     0.07600
H1135       H  0.04071112  0.68932254  0.18226218     0.08800
Cu1136     Cu  0.99169611  0.67693103  0.16762648     0.44200
Cu1137     Cu  0.00980316  0.70000000  0.19037182     0.42000
Cu1138     Cu  0.97302714  0.69852003  0.19120863     0.43900
N1139       N  0.97046349  0.67738592  0.16900146    -0.34800
N1140       N  0.96382503  0.68525691  0.17775076    -0.29100
C1141       C  0.95035535  0.68299518  0.17659720    -0.05200
C1142       C  0.94831801  0.67330511  0.16656050     0.07000
C1143       C  0.96129440  0.66988928  0.16198030     0.00800
H1144       H  0.94259633  0.68802159  0.18268782     0.08500
H1145       H  0.96391459  0.66227102  0.15440299     0.07600
N1146       N  0.98434339  0.71117557  0.20360069    -0.36300
N1147       N  0.99782191  0.71195172  0.20308663    -0.28400
C1148       C  0.00209355  0.72127407  0.21220936    -0.03700
C1149       C  0.99073596  0.72659342  0.21872336     0.04900
C1150       C  0.97965905  0.71987423  0.21314106     0.03000
H1151       H  0.01268670  0.72381582  0.21411618     0.08100
H1152       H  0.96898645  0.72127512  0.21572843     0.07000
N1153       N  0.02272614  0.80492486  0.30336521    -0.27400
N1154       N  0.01611470  0.81328727  0.31166403    -0.35300
C1155       C  0.02518671  0.82012125  0.31934461     0.00900
C1156       C  0.03815710  0.81577388  0.31583890     0.06900
C1157       C  0.03625115  0.80625547  0.30554094    -0.06200
H1158       H  0.02250364  0.82780927  0.32683436     0.07600
H1159       H  0.04409957  0.80060083  0.30014855     0.08800
Cu1160     Cu  0.99510917  0.81511738  0.31250479     0.44200
Cu1161     Cu  0.01279912  0.79204792  0.28979664     0.42000
Cu1162     Cu  0.97524055  0.79306825  0.29136141     0.43900
N1163       N  0.97400463  0.81533633  0.31231961    -0.34800
N1164       N  0.96659045  0.80721144  0.30450115    -0.29100
C1165       C  0.95326334  0.80974558  0.30677095    -0.05200
C1166       C  0.95227292  0.82006164  0.31643343     0.07000
C1167       C  0.96563863  0.82324013  0.31980497     0.00800
H1168       H  0.94495503  0.80425578  0.30196971     0.08500
H1169       H  0.96904589  0.83077801  0.32716019     0.07600
N1170       N  0.98641353  0.78026202  0.27876450    -0.36300
N1171       N  0.99992212  0.78010109  0.27795777    -0.28400
C1172       C  0.00370795  0.77104309  0.26835132    -0.03700
C1173       C  0.99205147  0.76510175  0.26304825     0.04900
C1174       C  0.98127250  0.77121801  0.26979751     0.03000
H1175       H  0.01418230  0.76895868  0.26542011     0.08100
H1176       H  0.97048345  0.76950870  0.26806748     0.07000
N1177       N  0.84285869  0.60488351  0.13474779    -0.27400
N1178       N  0.85174028  0.60553700  0.14491298    -0.35300
C1179       C  0.85014265  0.59451509  0.15296225     0.00900
C1180       C  0.83982487  0.58647578  0.14756418     0.06900
C1181       C  0.83534606  0.59345550  0.13608785    -0.06200
H1182       H  0.85604122  0.59252724  0.16213054     0.07600
H1183       H  0.82700679  0.59067621  0.12938996     0.08800
Cu1184     Cu  0.86536163  0.62149546  0.14766678     0.44200
Cu1185     Cu  0.84112225  0.61953457  0.11957106     0.42000
Cu1186     Cu  0.86345799  0.64856324  0.12240437     0.43900
N1187       N  0.87792471  0.63851896  0.14774096    -0.34800
N1188       N  0.87716866  0.64837740  0.13851870    -0.29100
C1189       C  0.88750989  0.65717236  0.14051953    -0.05200
C1190       C  0.89513975  0.65268720  0.15155691     0.07000
C1191       C  0.88877251  0.64080644  0.15587503     0.00800
H1192       H  0.88975940  0.66578975  0.13393138     0.08500
H1193       H  0.89232789  0.63379208  0.16366674     0.07600
N1194       N  0.84963607  0.64604134  0.10658223    -0.36300
N1195       N  0.84144956  0.63535227  0.10551490    -0.28400
C1196       C  0.83384323  0.63665563  0.09413992    -0.03700
C1197       C  0.83729479  0.64884152  0.08781738     0.04900
C1198       C  0.84746867  0.65443971  0.09591601     0.03000
H1199       H  0.82628551  0.62929819  0.09076129     0.08100
H1200       H  0.85308708  0.66379438  0.09408689     0.07000
N1201       N  0.80296655  0.02121288  0.67937501    -0.27400
N1202       N  0.81181332  0.01440904  0.67173878    -0.35300
C1203       C  0.81908308  0.02331321  0.66422992     0.00900
C1204       C  0.81456588  0.03638133  0.66712056     0.06900
C1205       C  0.80434380  0.03469593  0.67680022    -0.06200
H1206       H  0.82735867  0.02049733  0.65744308     0.07600
H1207       H  0.79881997  0.04269293  0.68207656     0.08800
Cu1208     Cu  0.81455082  0.99343081  0.67233297     0.44200
Cu1209     Cu  0.79042514  0.01173356  0.69381759     0.42000
Cu1210     Cu  0.79510937  0.97478023  0.69717421     0.43900
N1211       N  0.81580101  0.97242177  0.67457254    -0.34800
N1212       N  0.80858456  0.96550813  0.68366242    -0.29100
C1213       C  0.81106371  0.95206753  0.68205799    -0.05200
C1214       C  0.82041943  0.95047625  0.67155987     0.07000
C1215       C  0.82313898  0.96359812  0.66700288     0.00800
H1216       H  0.80624282  0.94402748  0.68794687     0.08500
H1217       H  0.82956297  0.96649555  0.65848470     0.07600
N1218       N  0.78138781  0.98610106  0.70875357    -0.36300
N1219       N  0.77965906  0.99947572  0.70759767    -0.28400
C1220       C  0.77014989  0.00350491  0.71669659    -0.03700
C1221       C  0.76553812  0.99212411  0.72379206     0.04900
C1222       C  0.77300147  0.98129609  0.71854328     0.03000
H1223       H  0.76684396  0.01398936  0.71808558     0.08100
H1224       H  0.77266070  0.97073856  0.72183199     0.07000
N1225       N  0.68153105  0.01979324  0.80636130    -0.27400
N1226       N  0.67256373  0.01260792  0.81348632    -0.35300
C1227       C  0.66441425  0.02119670  0.82046104     0.00900
C1228       C  0.66837044  0.03446573  0.81758103     0.06900
C1229       C  0.67934615  0.03318811  0.80871100    -0.06200
H1230       H  0.65647324  0.01797686  0.82744884     0.07600
H1231       H  0.68535502  0.04140326  0.80434886     0.08800
Cu1232     Cu  0.67206668  0.99145524  0.81409489     0.44200
Cu1233     Cu  0.69652438  0.01091686  0.79409640     0.42000
Cu1234     Cu  0.69813097  0.97364754  0.79530726     0.43900
N1235       N  0.67347811  0.97034569  0.81340501    -0.34800
N1236       N  0.68305808  0.96374840  0.80654349    -0.29100
C1237       C  0.68111436  0.95020760  0.80807551    -0.05200
C1238       C  0.66966054  0.94817705  0.81617979     0.07000
C1239       C  0.66521372  0.96121339  0.81950706     0.00800
H1240       H  0.68752890  0.94240389  0.80355545     0.08500
H1241       H  0.65678506  0.96392101  0.82612238     0.07600
N1242       N  0.71121965  0.98572922  0.78371344    -0.36300
N1243       N  0.71055605  0.99922824  0.78310934    -0.28400
C1244       C  0.71990397  0.00374598  0.77406997    -0.03700
C1245       C  0.72690855  0.99257801  0.76881255     0.04900
C1246       C  0.72100862  0.98133765  0.77511128     0.03000
H1247       H  0.72106332  0.01433480  0.77112144     0.08100
H1248       H  0.72344560  0.97068028  0.77333626     0.07000
N1249       N  0.96726590  0.80464711  0.68202581    -0.27400
N1250       N  0.97403351  0.81222028  0.67311900    -0.35300
C1251       C  0.96502365  0.81966690  0.66586177     0.00900
C1252       C  0.95196698  0.81649533  0.67034089     0.06900
C1253       C  0.95380585  0.80702549  0.68068140    -0.06200
H1254       H  0.96777236  0.82690466  0.65794030     0.07600
H1255       H  0.94600423  0.80246407  0.68704307     0.08800
Cu1256     Cu  0.99519766  0.81230365  0.67173600     0.44200
Cu1257     Cu  0.97652883  0.79173333  0.69590566     0.42000
Cu1258     Cu  0.01331199  0.79085413  0.69641488     0.43900
N1259       N  0.01631675  0.81107098  0.67326020    -0.34800
N1260       N  0.02288093  0.80340031  0.68226628    -0.29100
C1261       C  0.03641446  0.80530735  0.68076781    -0.05200
C1262       C  0.03848506  0.81451996  0.67021220     0.07000
C1263       C  0.02550531  0.81803574  0.66579510     0.00800
H1264       H  0.04410538  0.80062036  0.68716877     0.08500
H1265       H  0.02290916  0.82521937  0.65776082     0.07600
N1266       N  0.00116238  0.77901852  0.70911786    -0.36300
N1267       N  0.98766382  0.77936752  0.70888223    -0.28400
C1268       C  0.98275100  0.77023155  0.71789248    -0.03700
C1269       C  0.99369989  0.76388578  0.72423570     0.04900
C1270       C  0.00520997  0.76963751  0.71831413     0.03000
H1271       H  0.97200837  0.76803721  0.71928746     0.08100
H1272       H  0.01578530  0.76705424  0.72041308     0.07000
N1273       N  0.96835064  0.67577872  0.80257304    -0.27400
N1274       N  0.97557264  0.66698765  0.80986671    -0.35300
C1275       C  0.96702509  0.65921601  0.81728840     0.00900
C1276       C  0.95374927  0.66320702  0.81445808     0.06900
C1277       C  0.95498090  0.67379756  0.80512368    -0.06200
H1278       H  0.97026478  0.65147022  0.82454367     0.07600
H1279       H  0.94682443  0.68005184  0.80098718     0.08800
Cu1280     Cu  0.99670129  0.66691071  0.81042264     0.44200
Cu1281     Cu  0.97725523  0.69064448  0.79038848     0.42000
Cu1282     Cu  0.01439672  0.69387610  0.79220864     0.43900
N1283       N  0.01761214  0.66986525  0.81120408    -0.34800
N1284       N  0.02409440  0.67989048  0.80486141    -0.29100
C1285       C  0.03750825  0.67906594  0.80778516    -0.05200
C1286       C  0.03955313  0.66787853  0.81621624     0.07000
C1287       C  0.02670225  0.66237687  0.81827528     0.00800
H1288       H  0.04523743  0.68598002  0.80389041     0.08500
H1289       H  0.02408196  0.65367914  0.82461917     0.07600
N1290       N  0.00206131  0.70532758  0.77930043    -0.36300
N1291       N  0.98859586  0.70420921  0.77872593    -0.28400
C1292       C  0.98376615  0.71293629  0.76926306    -0.03700
C1293       C  0.99471367  0.71971460  0.76344526     0.04900
C1294       C  0.00614704  0.71474325  0.77015243     0.03000
H1295       H  0.97305059  0.71415512  0.76670258     0.08100
H1296       H  0.01665153  0.71785975  0.76864929     0.07000
N1297       N  0.51881003  0.68237281  0.30859322    -0.27400
N1298       N  0.51223744  0.67473808  0.31760256    -0.35300
C1299       C  0.52148674  0.66783900  0.32514029     0.00900
C1300       C  0.53448785  0.67144856  0.32073305     0.06900
C1301       C  0.53233197  0.68058632  0.31015512    -0.06200
H1302       H  0.51889675  0.66052618  0.33303140     0.07600
H1303       H  0.54005276  0.68564835  0.30405093     0.08800
Cu1304     Cu  0.49096502  0.67419878  0.31904676     0.44200
Cu1305     Cu  0.50936383  0.69506756  0.29460912     0.42000
Cu1306     Cu  0.47283208  0.69826101  0.29697039     0.43900
N1307       N  0.46971126  0.67574315  0.31797355    -0.34800
N1308       N  0.46317192  0.68437451  0.30984404    -0.29100
C1309       C  0.44961123  0.68251330  0.31128666    -0.05200
C1310       C  0.44748017  0.67222208  0.32077301     0.07000
C1311       C  0.46044584  0.66827244  0.32489380     0.00800
H1312       H  0.44187317  0.68835045  0.30593552     0.08500
H1313       H  0.46296204  0.66040718  0.33229182     0.07600
N1314       N  0.48474089  0.70984049  0.28372655    -0.36300
N1315       N  0.49810861  0.70830403  0.28260768    -0.28400
C1316       C  0.50281186  0.71666636  0.27277240    -0.03700
C1317       C  0.49190708  0.72406639  0.26755881     0.04900
C1318       C  0.48058962  0.71933567  0.27467713     0.03000
H1319       H  0.51334164  0.71698461  0.26945499     0.08100
H1320       H  0.47005678  0.72249104  0.27329785     0.07000
N1321       N  0.52057410  0.80614051  0.18473166    -0.27400
N1322       N  0.51396466  0.81548763  0.17754367    -0.35300
C1323       C  0.52308849  0.82353849  0.17115718     0.00900
C1324       C  0.53613589  0.81921526  0.17461786     0.06900
C1325       C  0.53411558  0.80803922  0.18312774    -0.06200
H1326       H  0.52036310  0.83172444  0.16423639     0.07600
H1327       H  0.54193647  0.80175277  0.18784542     0.08800
Cu1328     Cu  0.49282587  0.81697057  0.17675706     0.44200
Cu1329     Cu  0.51061297  0.79136808  0.19632394     0.42000
Cu1330     Cu  0.47333294  0.79450200  0.19851680     0.43900
N1331       N  0.47164900  0.81719196  0.17781250    -0.34800
N1332       N  0.46445800  0.80915042  0.18595345    -0.29100
C1333       C  0.45105577  0.81157378  0.18392283    -0.05200
C1334       C  0.44976788  0.82165046  0.17403359     0.07000
C1335       C  0.46303705  0.82487763  0.17034008     0.00800
H1336       H  0.44287660  0.80597539  0.18882511     0.08500
H1337       H  0.46620362  0.83211680  0.16257667     0.07600
N1338       N  0.48476603  0.78003708  0.20906782    -0.36300
N1339       N  0.49818043  0.77870144  0.20801609    -0.28400
C1340       C  0.50231642  0.76858112  0.21635489    -0.03700
C1341       C  0.49099768  0.76321932  0.22298594     0.04900
C1342       C  0.48006114  0.77086472  0.21817715     0.03000
H1343       H  0.51289081  0.76557832  0.21775473     0.08100
H1344       H  0.46953673  0.77030710  0.22148829     0.07000
N1345       N  0.37778588  0.63768142  0.34348483    -0.27400
N1346       N  0.37729297  0.64670416  0.35352387    -0.35300
C1347       C  0.38832332  0.65490848  0.35271779     0.00900
C1348       C  0.39628195  0.65075251  0.34172806     0.06900
C1349       C  0.38915265  0.63988429  0.33605621    -0.06200
H1350       H  0.39024405  0.66339137  0.35953031     0.07600
H1351       H  0.39209882  0.63390150  0.32723507     0.08800
Cu1352     Cu  0.36176180  0.64705991  0.36805700     0.44200
Cu1353     Cu  0.36295764  0.62273865  0.34044281     0.42000
Cu1354     Cu  0.33488144  0.62152196  0.36474874     0.43900
N1355       N  0.34606087  0.64437299  0.38215547    -0.34800
N1356       N  0.33628291  0.63510961  0.38098240    -0.29100
C1357       C  0.32829993  0.63557680  0.39218060    -0.05200
C1358       C  0.33340818  0.64546214  0.40093655     0.07000
C1359       C  0.34453847  0.65096744  0.39411478     0.00800
H1360       H  0.31965984  0.62889856  0.39400910     0.08500
H1361       H  0.35112564  0.65914101  0.39758040     0.07600
N1362       N  0.33690799  0.60811366  0.34842989    -0.36300
N1363       N  0.34712564  0.60855860  0.33959838    -0.28400
C1364       C  0.34584715  0.59808198  0.33078916    -0.03700
C1365       C  0.33422836  0.59068280  0.33415446     0.04900
C1366       C  0.32890742  0.59731338  0.34549457     0.03000
H1367       H  0.35305390  0.59582199  0.32271299     0.08100
H1368       H  0.32027192  0.59415262  0.35163392     0.07000
N1369       N  0.29973971  0.67616771  0.52379028    -0.27400
N1370       N  0.30757189  0.66737056  0.51716915    -0.35300
C1371       C  0.31427447  0.65957586  0.52629594     0.00900
C1372       C  0.31040574  0.66356825  0.53931101     0.06900
C1373       C  0.30126248  0.67420485  0.53731335    -0.06200
H1374       H  0.32187347  0.65199195  0.52362188     0.07600
H1375       H  0.29633029  0.68029582  0.54511635     0.08800
Cu1376     Cu  0.30943360  0.66678784  0.49607233     0.44200
Cu1377     Cu  0.28821168  0.69111347  0.51417179     0.42000
Cu1378     Cu  0.29039240  0.69225733  0.47720021     0.43900
N1379       N  0.30895671  0.66774287  0.47490877    -0.34800
N1380       N  0.30171156  0.67685597  0.46801881    -0.29100
C1381       C  0.30323707  0.67453781  0.45455992    -0.05200
C1382       C  0.31185599  0.66343891  0.45290411     0.07000
C1383       C  0.31541718  0.65948840  0.46600840     0.00800
H1384       H  0.29866916  0.68069634  0.44655900     0.08500
H1385       H  0.32219283  0.65117969  0.46887221     0.07600
N1386       N  0.27952254  0.70629621  0.48878031    -0.36300
N1387       N  0.27860502  0.70575439  0.50224966    -0.28400
C1388       C  0.27026270  0.71578294  0.50656604    -0.03700
C1389       C  0.26579351  0.72309418  0.49529367     0.04900
C1390       C  0.27180259  0.71671397  0.48417667     0.03000
H1391       H  0.26740380  0.71743110  0.51712580     0.08100
H1392       H  0.27015914  0.71901025  0.47347980     0.07000
N1393       N  0.18076741  0.80472226  0.52042427    -0.27400
N1394       N  0.17294610  0.81337368  0.51360194    -0.35300
C1395       C  0.16519223  0.82039227  0.52254243     0.00900
C1396       C  0.16820502  0.81582128  0.53563141     0.06900
C1397       C  0.17822484  0.80597928  0.53385437    -0.06200
H1398       H  0.15818275  0.82847486  0.51971369     0.07600
H1399       H  0.18333500  0.80014623  0.54176950     0.08800
Cu1400     Cu  0.17351926  0.81514384  0.49246948     0.44200
Cu1401     Cu  0.19461735  0.79171161  0.51118471     0.42000
Cu1402     Cu  0.19639025  0.79188229  0.47421255     0.43900
N1403       N  0.17566611  0.81460194  0.47137314    -0.34800
N1404       N  0.18372708  0.80602621  0.46470411    -0.29100
C1405       C  0.18223505  0.80810578  0.45118227    -0.05200
C1406       C  0.17296374  0.81863006  0.44928396     0.07000
C1407       C  0.16893621  0.82241823  0.46228769     0.00800
H1408       H  0.18749566  0.80237448  0.44332156     0.08500
H1409       H  0.16137663  0.83004496  0.46496022     0.07600
N1410       N  0.20817760  0.77921640  0.48651430    -0.36300
N1411       N  0.20747657  0.77921687  0.50000710    -0.28400
C1412       C  0.21637521  0.77000932  0.50499559    -0.03700
C1413       C  0.22293062  0.76379391  0.49412344     0.04900
C1414       C  0.21759323  0.76999768  0.48255906     0.03000
H1415       H  0.21812199  0.76821279  0.51576481     0.08100
H1416       H  0.22032838  0.76793669  0.47204555     0.07000
N1417       N  0.14683439  0.87928501  0.63587677    -0.27400
N1418       N  0.13728673  0.87942889  0.64543575    -0.35300
C1419       C  0.13883338  0.89066767  0.65319056     0.00900
C1420       C  0.14976785  0.89809963  0.64817676     0.06900
C1421       C  0.15470535  0.89048089  0.63729285    -0.06200
H1422       H  0.13220803  0.89344317  0.66160138     0.07600
H1423       H  0.16333292  0.89290061  0.63082015     0.08800
Cu1424     Cu  0.12194768  0.86496781  0.64692550     0.44200
Cu1425     Cu  0.14810432  0.86432025  0.62081200     0.42000
Cu1426     Cu  0.12076572  0.83923709  0.62042533     0.43900
N1427       N  0.10689618  0.85019308  0.64560405    -0.34800
N1428       N  0.10659928  0.84064587  0.63604578    -0.29100
C1429       C  0.09558479  0.83267953  0.63800693    -0.05200
C1430       C  0.08851802  0.83759746  0.64919480     0.07000
C1431       C  0.09599167  0.84865777  0.65382414     0.00800
H1432       H  0.09278494  0.82409592  0.63160129     0.08500
H1433       H  0.09372411  0.85507270  0.66253829     0.07600
N1434       N  0.13592863  0.84025982  0.60573340    -0.36300
N1435       N  0.14608729  0.84917846  0.60600801    -0.28400
C1436       C  0.15413200  0.84708324  0.59505379    -0.03700
C1437       C  0.14876977  0.83633554  0.58755894     0.04900
C1438       C  0.13716154  0.83235752  0.59455867     0.03000
H1439       H  0.16301979  0.85317548  0.59254192     0.08100
H1440       H  0.13011736  0.82428904  0.59174212     0.07000
N1441       N  0.18301952  0.96481893  0.67970510    -0.27400
N1442       N  0.17482023  0.97153755  0.67130095    -0.35300
C1443       C  0.16678302  0.96250534  0.66475587     0.00900
C1444       C  0.16992855  0.94949897  0.66940016     0.06900
C1445       C  0.18034503  0.95135659  0.67879958    -0.06200
H1446       H  0.15925615  0.96520251  0.65708013     0.07600
H1447       H  0.18591386  0.94349074  0.68422176     0.08800
Cu1448     Cu  0.17498513  0.99265440  0.66900770     0.44200
Cu1449     Cu  0.19795402  0.97409329  0.69154585     0.42000
Cu1450     Cu  0.19893581  0.01095820  0.69036283     0.43900
N1451       N  0.17677280  0.01380916  0.66929947    -0.34800
N1452       N  0.18543745  0.02043845  0.67726501    -0.29100
C1453       C  0.18392470  0.03395346  0.67534078    -0.05200
C1454       C  0.17392587  0.03595834  0.66556594     0.07000
C1455       C  0.16951110  0.02296857  0.66204742     0.00800
H1456       H  0.18969781  0.04174687  0.68067361     0.08500
H1457       H  0.16138932  0.02035410  0.65501908     0.07600
N1458       N  0.21208698  0.99932609  0.70200916    -0.36300
N1459       N  0.21194245  0.98581493  0.70231945    -0.28400
C1460       C  0.22160747  0.98144870  0.71107831    -0.03700
C1461       C  0.22813248  0.99278337  0.71648677     0.04900
C1462       C  0.22174465  0.00393121  0.71060003     0.03000
H1463       H  0.22330616  0.97084724  0.71378504     0.08100
H1464       H  0.22375453  0.01463114  0.71264710     0.07000
N1465       N  0.30280844  0.96428159  0.80659873    -0.27400
N1466       N  0.30942906  0.97120145  0.81612972    -0.35300
C1467       C  0.31638641  0.96240930  0.82407723     0.00900
C1468       C  0.31392179  0.94924898  0.81949243     0.06900
C1469       C  0.30540243  0.95084843  0.80826445    -0.06200
H1470       H  0.32298090  0.96544495  0.83240977     0.07600
H1471       H  0.30131375  0.94282207  0.80183171     0.08800
Cu1472     Cu  0.30909597  0.99229579  0.81792408     0.44200
Cu1473     Cu  0.29064122  0.97364159  0.79184431     0.42000
Cu1474     Cu  0.28911008  0.01105628  0.79364510     0.43900
N1475       N  0.30852172  0.01344477  0.81724459    -0.34800
N1476       N  0.30115616  0.02040177  0.80830977    -0.29100
C1477       C  0.30354082  0.03384565  0.81000286    -0.05200
C1478       C  0.31305210  0.03540516  0.82039868     0.07000
C1479       C  0.31581418  0.02224727  0.82485274     0.00800
H1480       H  0.29874946  0.04182064  0.80404763     0.08500
H1481       H  0.32296932  0.01925095  0.83276463     0.07600
N1482       N  0.27876219  0.99936840  0.77936504    -0.36300
N1483       N  0.27928068  0.98586710  0.77862284    -0.28400
C1484       C  0.27133403  0.98170428  0.76819254    -0.03700
C1485       C  0.26542895  0.99310966  0.76220814     0.04900
C1486       C  0.27051938  0.00412596  0.76945605     0.03000
H1487       H  0.26982032  0.97112706  0.76528757     0.08100
H1488       H  0.26854153  0.01484944  0.76759713     0.07000
N1489       N  0.14635558  0.10547867  0.63535997    -0.27400
N1490       N  0.13708338  0.10487787  0.64515857    -0.35300
C1491       C  0.13969683  0.09394270  0.65308918     0.00900
C1492       C  0.15117739  0.08742145  0.64798308     0.06900
C1493       C  0.15503672  0.09493269  0.63668062    -0.06200
H1494       H  0.13343728  0.09072665  0.66162383     0.07600
H1495       H  0.16346624  0.09282378  0.62982969     0.08800
Cu1496     Cu  0.12090210  0.11847267  0.64652421     0.44200
Cu1497     Cu  0.14668553  0.12023337  0.62037520     0.42000
Cu1498     Cu  0.11909616  0.14444089  0.61959709     0.43900
N1499       N  0.10534816  0.13274382  0.64472775    -0.34800
N1500       N  0.10464565  0.14209941  0.63497590    -0.29100
C1501       C  0.09332216  0.14967220  0.63685808    -0.05200
C1502       C  0.08667132  0.14496560  0.64843555     0.07000
C1503       C  0.09450192  0.13412433  0.65304726     0.00800
H1504       H  0.09013851  0.15792096  0.63020122     0.08500
H1505       H  0.09256425  0.12780749  0.66193426     0.07600
N1506       N  0.13483531  0.14419361  0.60535817    -0.36300
N1507       N  0.14497310  0.13527187  0.60576703    -0.28400
C1508       C  0.15316821  0.13721303  0.59493256    -0.03700
C1509       C  0.14785135  0.14776433  0.58718410     0.04900
C1510       C  0.13631481  0.15209232  0.59419335     0.03000
H1511       H  0.16207587  0.13105488  0.59261099     0.08100
H1512       H  0.12942220  0.16024683  0.59134066     0.07000
N1513       N  0.02143392  0.17702607  0.68378156    -0.27400
N1514       N  0.01440962  0.16918994  0.67528703    -0.35300
C1515       C  0.02316679  0.16135559  0.66814641     0.00900
C1516       C  0.03631714  0.16440808  0.67234736     0.06900
C1517       C  0.03484595  0.17447458  0.68215925    -0.06200
H1518       H  0.02019573  0.15429246  0.66017071     0.07600
H1519       H  0.04294872  0.17964387  0.68765634     0.08800
Cu1520     Cu  0.99331338  0.16985243  0.67319806     0.44200
Cu1521     Cu  0.01263466  0.19091987  0.69718414     0.42000
Cu1522     Cu  0.97585073  0.19292179  0.69597882     0.43900
N1523       N  0.97226666  0.17247851  0.67334070    -0.34800
N1524       N  0.96591035  0.18084291  0.68183178    -0.29100
C1525       C  0.95236220  0.17997185  0.67974274    -0.05200
C1526       C  0.95006348  0.17074448  0.66929832     0.07000
C1527       C  0.96290838  0.16609963  0.66554539     0.00800
H1528       H  0.94474132  0.18562620  0.68543851     0.08500
H1529       H  0.96526936  0.15839220  0.65797866     0.07600
N1530       N  0.98768497  0.20422463  0.70928183    -0.36300
N1531       N  0.00117414  0.20361200  0.70973870    -0.28400
C1532       C  0.00570380  0.21236561  0.71933037    -0.03700
C1533       C  0.99449508  0.21886717  0.72507058     0.04900
C1534       C  0.98325780  0.21333141  0.71854663     0.03000
H1535       H  0.01633744  0.21377535  0.72198550     0.08100
H1536       H  0.97261732  0.21589725  0.72025557     0.07000
N1537       N  0.96350751  0.30770728  0.80052672    -0.27400
N1538       N  0.97034908  0.31663639  0.80801390    -0.35300
C1539       C  0.96142849  0.32466840  0.81468499     0.00900
C1540       C  0.94829821  0.32076039  0.81112486     0.06900
C1541       C  0.95002975  0.30987554  0.80222462    -0.06200
H1542       H  0.96434010  0.33235116  0.82208725     0.07600
H1543       H  0.94205984  0.30378193  0.79752939     0.08800
Cu1544     Cu  0.99142539  0.31688300  0.80997555     0.44200
Cu1545     Cu  0.97278103  0.29230410  0.78924579     0.42000
Cu1546     Cu  0.00944213  0.28920353  0.79390648     0.43900
N1547       N  0.01223185  0.31368123  0.81219395    -0.34800
N1548       N  0.01879564  0.30335572  0.80647708    -0.29100
C1549       C  0.03207694  0.30397127  0.80995160    -0.05200
C1550       C  0.03395713  0.31518102  0.81837775     0.07000
C1551       C  0.02116735  0.32117268  0.81945434     0.00800
H1552       H  0.03982813  0.29701447  0.80623460     0.08500
H1553       H  0.01854673  0.33033060  0.82509238     0.07600
N1554       N  0.99805489  0.27645115  0.78151242    -0.36300
N1555       N  0.98467387  0.27744235  0.77985075    -0.28400
C1556       C  0.98055166  0.26771753  0.77104067    -0.03700
C1557       C  0.99190201  0.26026798  0.76701767     0.04900
C1558       C  0.00281600  0.26617692  0.77374979     0.03000
H1559       H  0.97015206  0.26646541  0.76749716     0.08100
H1560       H  0.01348567  0.26330800  0.77295418     0.07000
N1561       N  0.88093695  0.13633304  0.64578789    -0.27400
N1562       N  0.88052477  0.14599206  0.63631299    -0.35300
C1563       C  0.89091938  0.15474109  0.63839794     0.00900
C1564       C  0.89813643  0.15051145  0.64980937     0.06900
C1565       C  0.89157407  0.13874650  0.65416895    -0.06200
H1566       H  0.89322103  0.16341632  0.63190162     0.07600
H1567       H  0.89463874  0.13208627  0.66245927     0.08800
Cu1568     Cu  0.86644494  0.14666708  0.62042083     0.44200
Cu1569     Cu  0.86768195  0.11973909  0.64651773     0.42000
Cu1570     Cu  0.84333338  0.11827850  0.61872884     0.43900
N1571       N  0.85182612  0.14454639  0.60515750    -0.34800
N1572       N  0.84337220  0.13403205  0.60456071    -0.29100
C1573       C  0.83524220  0.13541333  0.59356057    -0.05200
C1574       C  0.83884615  0.14730665  0.58674826     0.07000
C1575       C  0.84930375  0.15290883  0.59451317     0.00800
H1576       H  0.82716456  0.12835860  0.59088689     0.08500
H1577       H  0.85480169  0.16230355  0.59247126     0.07600
N1578       N  0.84455610  0.10371520  0.63406710    -0.36300
N1579       N  0.85336268  0.10419504  0.64430496    -0.28400
C1580       C  0.85119115  0.09338930  0.65257120    -0.03700
C1581       C  0.84056778  0.08567647  0.64718764     0.04900
C1582       C  0.83657884  0.09263127  0.63552315     0.03000
H1583       H  0.85670192  0.09153100  0.66196774     0.08100
H1584       H  0.82841889  0.08985109  0.62858290     0.07000
N1585       N  0.68157411  0.52293082  0.30398491    -0.27400
N1586       N  0.67334861  0.51643593  0.31252142    -0.35300
C1587       C  0.66549635  0.52564489  0.31903906     0.00900
C1588       C  0.66891811  0.53854482  0.31433603     0.06900
C1589       C  0.67925677  0.53645170  0.30492967    -0.06200
H1590       H  0.65798109  0.52313107  0.32677042     0.07600
H1591       H  0.68461375  0.54419229  0.29908331     0.08800
Cu1592     Cu  0.67302240  0.49537049  0.31478530     0.44200
Cu1593     Cu  0.69521261  0.51313182  0.29109241     0.42000
Cu1594     Cu  0.69558980  0.47618876  0.29255478     0.43900
N1595       N  0.67364803  0.47420942  0.31401365    -0.34800
N1596       N  0.68183326  0.46722143  0.30584644    -0.29100
C1597       C  0.67938592  0.45378997  0.30743296    -0.05200
C1598       C  0.66904177  0.45224605  0.31695294     0.07000
C1599       C  0.66578053  0.46540169  0.32102895     0.00800
H1600       H  0.68485689  0.44576960  0.30211748     0.08500
H1601       H  0.65806621  0.46837557  0.32839449     0.07600
N1602       N  0.70769161  0.48750458  0.27944166    -0.36300
N1603       N  0.70745038  0.50100525  0.27878429    -0.28400
C1604       C  0.71649378  0.50518577  0.26932397    -0.03700
C1605       C  0.72267397  0.49375470  0.26371957     0.04900
C1606       C  0.71693856  0.48273703  0.27047714     0.03000
H1607       H  0.71872178  0.51579578  0.26703946     0.08100
H1608       H  0.71939399  0.47201493  0.26906371     0.07000
N1609       N  0.80804577  0.52144245  0.18427755    -0.27400
N1610       N  0.81641798  0.51469659  0.17609809    -0.35300
C1611       C  0.82329780  0.52368698  0.16832078     0.00900
C1612       C  0.81920199  0.53673956  0.17189517     0.06900
C1613       C  0.80941909  0.53493308  0.18196219    -0.06200
H1614       H  0.83084224  0.52092335  0.16071271     0.07600
H1615       H  0.80359124  0.54279959  0.18710819     0.08800
Cu1616     Cu  0.81816053  0.49361868  0.17581462     0.44200
Cu1617     Cu  0.79517882  0.51192260  0.19813300     0.42000
Cu1618     Cu  0.79629961  0.47467304  0.19867807     0.43900
N1619       N  0.81739456  0.47248733  0.17638063    -0.34800
N1620       N  0.80923016  0.46550815  0.18456680    -0.29100
C1621       C  0.81079038  0.45208333  0.18201952    -0.05200
C1622       C  0.82032877  0.45052116  0.17164405     0.07000
C1623       C  0.82443223  0.46371294  0.16848861     0.00800
H1624       H  0.80526442  0.44403996  0.18725069     0.08500
H1625       H  0.83210562  0.46678385  0.16115829     0.07600
N1626       N  0.78395679  0.48638434  0.21135581    -0.36300
N1627       N  0.78345390  0.49989885  0.21102974    -0.28400
C1628       C  0.77396779  0.50424421  0.21996181    -0.03700
C1629       C  0.76832454  0.49295298  0.22633921     0.04900
C1630       C  0.77483590  0.48179246  0.22056126     0.03000
H1631       H  0.77121732  0.51486954  0.22154312     0.08100
H1632       H  0.77271996  0.47109913  0.22247233     0.07000
N1633       N  0.63313448  0.38395220  0.34143340    -0.27400
N1634       N  0.64265809  0.38392217  0.35102846    -0.35300
C1635       C  0.65055990  0.39504692  0.34958309     0.00900
C1636       C  0.64574053  0.40252752  0.33861257     0.06900
C1637       C  0.63478784  0.39512363  0.33356309    -0.06200
H1638       H  0.65924983  0.39742483  0.35599624     0.07600
H1639       H  0.62835058  0.39778211  0.32493913     0.08800
Cu1640     Cu  0.64461262  0.36906430  0.36588713     0.44200
Cu1641     Cu  0.61805010  0.36909598  0.33998992     0.42000
Cu1642     Cu  0.61865264  0.34332364  0.36692686     0.43900
N1643       N  0.64437036  0.35351638  0.38015615    -0.34800
N1644       N  0.63481270  0.34398914  0.38051488    -0.29100
C1645       C  0.63721978  0.33560953  0.39113665    -0.05200
C1646       C  0.64893067  0.34003775  0.39772908     0.07000
C1647       C  0.65310969  0.35150112  0.39056345     0.00800
H1648       H  0.63062790  0.32724218  0.39412120     0.08500
H1649       H  0.66175611  0.35802603  0.39286357     0.07600
N1650       N  0.60358553  0.34466800  0.35217757    -0.36300
N1651       N  0.60348712  0.35381792  0.34221173    -0.28400
C1652       C  0.59239174  0.35173494  0.33437434    -0.03700
C1653       C  0.58508628  0.34090491  0.33979435     0.04900
C1654       C  0.59252589  0.33659854  0.35100852     0.03000
H1655       H  0.58972761  0.35778834  0.32548598     0.08100
H1656       H  0.59019567  0.32812649  0.35772781     0.07000
N1657       N  0.68276695  0.30896607  0.52000207    -0.27400
N1658       N  0.67476390  0.31770134  0.51348036    -0.35300
C1659       C  0.66839684  0.32568685  0.52270479     0.00900
C1660       C  0.67268820  0.32183910  0.53565849     0.06900
C1661       C  0.68170352  0.31114322  0.53351043    -0.06200
H1662       H  0.66083410  0.33334229  0.52016626     0.07600
H1663       H  0.68699364  0.30521941  0.54124216     0.08800
Cu1664     Cu  0.67262083  0.31799159  0.49238469     0.44200
Cu1665     Cu  0.69459263  0.29418708  0.51048124     0.42000
Cu1666     Cu  0.69343448  0.29315225  0.47385230     0.43900
N1667       N  0.67316909  0.31635459  0.47125270    -0.34800
N1668       N  0.68071239  0.30734917  0.46455609    -0.29100
C1669       C  0.67892964  0.30919516  0.45105584    -0.05200
C1670       C  0.66997346  0.31998381  0.44913799     0.07000
C1671       C  0.66639752  0.32416200  0.46217619     0.00800
H1672       H  0.68394185  0.30322783  0.44319983     0.08500
H1673       H  0.65928117  0.33218135  0.46491340     0.07600
N1674       N  0.70589787  0.28048109  0.48542529    -0.36300
N1675       N  0.70625616  0.28080007  0.49892037    -0.28400
C1676       C  0.71533134  0.27147377  0.50339291    -0.03700
C1677       C  0.72111590  0.26508463  0.49216105     0.04900
C1678       C  0.71475911  0.27096730  0.48093906     0.03000
H1679       H  0.71765569  0.26957500  0.51405264     0.08100
H1680       H  0.71626088  0.26838573  0.47029424     0.07000
N1681       N  0.80379934  0.18204741  0.52193963    -0.27400
N1682       N  0.81245752  0.17417554  0.51517550    -0.35300
C1683       C  0.82006175  0.16710328  0.52418407     0.00900
C1684       C  0.81615748  0.17079569  0.53727102     0.06900
C1685       C  0.80573039  0.18023202  0.53545327    -0.06200
H1686       H  0.82793491  0.15981294  0.52140195     0.07600
H1687       H  0.79975891  0.18517855  0.54333769     0.08800
Cu1688     Cu  0.81374612  0.17347359  0.49400284     0.44200
Cu1689     Cu  0.78961698  0.19462839  0.51234920     0.42000
Cu1690     Cu  0.79037492  0.19497420  0.47508805     0.43900
N1691       N  0.81381484  0.17503006  0.47283567    -0.34800
N1692       N  0.80525526  0.18287113  0.46589697    -0.29100
C1693       C  0.80778517  0.18142139  0.45245646    -0.05200
C1694       C  0.81855944  0.17235059  0.45083590     0.07000
C1695       C  0.82203098  0.16841801  0.46400021     0.00800
H1696       H  0.80212094  0.18653285  0.44442220     0.08500
H1697       H  0.82966145  0.16098134  0.46695328     0.07600
N1698       N  0.77672366  0.20632536  0.48680090    -0.36300
N1699       N  0.77647966  0.20620360  0.50031658    -0.28400
C1700       C  0.76683937  0.21498489  0.50469726    -0.03700
C1701       C  0.76058725  0.22085508  0.49341336     0.04900
C1702       C  0.76723000  0.21519282  0.48225096     0.03000
H1703       H  0.76494710  0.21731215  0.51533615     0.08100
H1704       H  0.76543765  0.21751502  0.47158082     0.07000
N1705       N  0.84300244  0.38088663  0.13674721    -0.27400
N1706       N  0.85176450  0.37992060  0.14700660    -0.35300
C1707       C  0.85014407  0.39074513  0.15531645     0.00900
C1708       C  0.83981968  0.39890177  0.15010032     0.06900
C1709       C  0.83563550  0.39242309  0.13823677    -0.06200
H1710       H  0.85625753  0.39267789  0.16432653     0.07600
H1711       H  0.82775970  0.39582621  0.13121601     0.08800
Cu1712     Cu  0.86614451  0.36445378  0.14899454     0.44200
Cu1713     Cu  0.84167511  0.36662728  0.12104034     0.42000
Cu1714     Cu  0.86918220  0.34188768  0.12003732     0.43900
N1715       N  0.88096840  0.34936408  0.14746153    -0.34800
N1716       N  0.88223102  0.34129822  0.13670436    -0.29100
C1717       C  0.89314780  0.33312412  0.13846614    -0.05200
C1718       C  0.89898781  0.33606917  0.15102052     0.07000
C1719       C  0.89105728  0.34652550  0.15636730     0.00800
H1720       H  0.89680477  0.32591343  0.13092306     0.08500
H1721       H  0.89264080  0.35184427  0.16594304     0.07600
N1722       N  0.85395975  0.34308754  0.10536002    -0.36300
N1723       N  0.84363292  0.35180262  0.10593725    -0.28400
C1724       C  0.83534080  0.34960549  0.09518360    -0.03700
C1725       C  0.84083587  0.33917030  0.08736082     0.04900
C1726       C  0.85258917  0.33521393  0.09417517     0.03000
H1727       H  0.82608860  0.35534258  0.09308089     0.08100
H1728       H  0.85952701  0.32708065  0.09134614     0.07000
N1729       N  0.35218916  0.84290383  0.10432863    -0.27400
N1730       N  0.34301006  0.85284310  0.10376924    -0.35300
C1731       C  0.33519388  0.85111414  0.09256869     0.00900
C1732       C  0.33962771  0.83952069  0.08577260     0.06900
C1733       C  0.35031565  0.83450614  0.09358585    -0.06200
H1734       H  0.32680895  0.85772654  0.08967297     0.07600
H1735       H  0.35644632  0.82552661  0.09147583     0.08800
Cu1736     Cu  0.34139710  0.86838311  0.11820547     0.44200
Cu1737     Cu  0.36743136  0.84159533  0.11918439     0.42000
Cu1738     Cu  0.36768306  0.86922140  0.14392423     0.43900
N1739       N  0.34238592  0.88321270  0.13341277    -0.34800
N1740       N  0.35205832  0.88349257  0.14284737    -0.29100
C1741       C  0.35010457  0.89442080  0.15096452    -0.05200
C1742       C  0.33874436  0.90147673  0.14632722     0.07000
C1743       C  0.33402675  0.89399493  0.13525906     0.00800
H1744       H  0.35665373  0.89719603  0.15944491     0.08500
H1745       H  0.32518916  0.89620684  0.12900250     0.07600
N1746       N  0.38239458  0.85399564  0.14314951    -0.36300
N1747       N  0.38241780  0.84388324  0.13417879    -0.28400
C1748       C  0.39344808  0.83593723  0.13647634    -0.03700
C1749       C  0.40070845  0.84136935  0.14738293     0.04900
C1750       C  0.39331139  0.85272881  0.15139820     0.03000
H1751       H  0.39586538  0.82678051  0.13076906     0.08100
H1752       H  0.39573949  0.85964530  0.15968470     0.07000
N1753       N  0.84140819  0.10539073  0.35346860    -0.27400
N1754       N  0.85106741  0.10458137  0.34406576    -0.35300
C1755       C  0.84927775  0.09310067  0.33674357     0.00900
C1756       C  0.83803450  0.08622772  0.34189513     0.06900
C1757       C  0.83318721  0.09442274  0.35237026    -0.06200
H1758       H  0.85567789  0.09005684  0.32826179     0.07600
H1759       H  0.82449147  0.09240985  0.35891390     0.08800
Cu1760     Cu  0.86661511  0.11872490  0.34206023     0.44200
Cu1761     Cu  0.84039529  0.12099952  0.36778617     0.42000
Cu1762     Cu  0.86770692  0.14591585  0.36748797     0.43900
N1763       N  0.88173092  0.13343836  0.34297914    -0.34800
N1764       N  0.88215694  0.14331685  0.35219267    -0.29100
C1765       C  0.89347671  0.15083467  0.35015018    -0.05200
C1766       C  0.90059393  0.14530184  0.33924611     0.07000
C1767       C  0.89275805  0.13439333  0.33485316     0.00800
H1768       H  0.89624734  0.15970028  0.35613959     0.08500
H1769       H  0.89503431  0.12748229  0.32652176     0.15600
N1770       N  0.85221077  0.14573280  0.38197005    -0.36300
N1771       N  0.84217912  0.13667908  0.38195729    -0.28400
C1772       C  0.83396002  0.13908069  0.39270215    -0.03700
C1773       C  0.83895657  0.15027681  0.39978623     0.04900
C1774       C  0.85064170  0.15412302  0.39275972     0.03000
H1775       H  0.82523436  0.13284180  0.39537466     0.08100
H1776       H  0.85753467  0.16240051  0.39533152     0.07000
N1777       N  0.13454318  0.84299343  0.38225793    -0.27400
N1778       N  0.14383898  0.85278017  0.38210907    -0.35300
C1779       C  0.15277834  0.85065967  0.39230295     0.00900
C1780       C  0.14901622  0.83890046  0.39921818     0.06900
C1781       C  0.13729018  0.83438607  0.39263989    -0.06200
H1782       H  0.16135249  0.85729252  0.39458290     0.07600
H1783       H  0.13097185  0.82573306  0.39539060     0.08800
Cu1784     Cu  0.14370327  0.86882698  0.36842204     0.44200
Cu1785     Cu  0.11876600  0.84199430  0.36814105     0.42000
Cu1786     Cu  0.11781697  0.86913646  0.34226863     0.43900
N1787       N  0.14186923  0.88411863  0.35401550    -0.34800
N1788       N  0.13247628  0.88425264  0.34430496    -0.29100
C1789       C  0.13442378  0.89530516  0.33634826    -0.05200
C1790       C  0.14563424  0.90237992  0.34130473     0.07000
C1791       C  0.14999030  0.89508507  0.35258202     0.00800
H1792       H  0.12816093  0.89795998  0.32762625     0.08500
H1793       H  0.15864888  0.89739689  0.35908926     0.07600
N1794       N  0.10481328  0.85244380  0.34255804    -0.36300
N1795       N  0.10507567  0.84272451  0.35196932    -0.28400
C1796       C  0.09509508  0.83367720  0.34930686    -0.03700
C1797       C  0.08832343  0.83779543  0.33758950     0.04900
C1798       C  0.09468111  0.84980281  0.33365659     0.03000
H1799       H  0.09282709  0.82480553  0.35555618     0.08100
H1800       H  0.09185843  0.85642326  0.32525025     0.07000
N1801       N  0.10400796  0.34866202  0.84137218    -0.27400
N1802       N  0.10319295  0.34032522  0.85198472    -0.35300
C1803       C  0.09159985  0.33299385  0.85096623     0.00900
C1804       C  0.08473069  0.33706560  0.83925668     0.06900
C1805       C  0.09300974  0.34688423  0.83335288    -0.06200
H1806       H  0.08830727  0.32539131  0.85832137     0.07600
H1807       H  0.09126647  0.35231288  0.82387425     0.08800
Cu1808     Cu  0.11778792  0.33954725  0.86742608     0.44200
Cu1809     Cu  0.11941977  0.36276065  0.83847338     0.42000
Cu1810     Cu  0.14516714  0.36459644  0.86446142     0.43900
N1811       N  0.13414328  0.34089492  0.88094698    -0.34800
N1812       N  0.14416950  0.34986850  0.87966840    -0.29100
C1813       C  0.15305118  0.34816559  0.89000678    -0.05200
C1814       C  0.14849641  0.33756138  0.89821421     0.07000
C1815       C  0.13637807  0.33328890  0.89220494     0.00800
H1816       H  0.16211896  0.35433314  0.89151809     0.08500
H1817       H  0.12942043  0.32554784  0.89594494     0.07600
N1818       N  0.14336546  0.37881141  0.84884942    -0.36300
N1819       N  0.13398017  0.37799119  0.83917871    -0.28400
C1820       C  0.13506144  0.38889041  0.83087391    -0.03700
C1821       C  0.14553747  0.39710476  0.83566595     0.04900
C1822       C  0.15068150  0.39029214  0.84697829     0.03000
H1823       H  0.12867529  0.39064313  0.82203277     0.08100
H1824       H  0.15894423  0.39360107  0.85356053     0.07000
N1825       N  0.35208055  0.10225247  0.84397979    -0.27400
N1826       N  0.34316874  0.10281678  0.85411372    -0.35300
C1827       C  0.33468885  0.09203212  0.85322029     0.00900
C1828       C  0.33852929  0.08422583  0.84205114     0.06900
C1829       C  0.34950972  0.09110594  0.83635990    -0.06200
H1830       H  0.32617741  0.09021063  0.86002777     0.07600
H1831       H  0.35522347  0.08821859  0.82733628     0.08800
Cu1832     Cu  0.34285288  0.11831068  0.86859565     0.44200
Cu1833     Cu  0.36713802  0.11678898  0.84090925     0.42000
Cu1834     Cu  0.36841601  0.14481978  0.86540415     0.43900
N1835       N  0.34459489  0.13462761  0.88204586    -0.34800
N1836       N  0.35388960  0.14436540  0.88088758    -0.29100
C1837       C  0.35226878  0.15334759  0.89118692    -0.05200
C1838       C  0.34153526  0.14895702  0.89935639     0.07000
C1839       C  0.33685558  0.13712792  0.89312071     0.00800
H1840       H  0.35833826  0.16249344  0.89245305     0.08500
H1841       H  0.32850351  0.13069161  0.89648977     0.07600
N1842       N  0.38164280  0.14280363  0.84891957    -0.36300
N1843       N  0.38109721  0.13265551  0.84001225    -0.28400
C1844       C  0.39116066  0.13422500  0.83080050    -0.03700
C1845       C  0.39836171  0.14598548  0.83396260     0.04900
C1846       C  0.39211421  0.15107634  0.84561186     0.03000
H1847       H  0.39319358  0.12719584  0.82250117     0.08100
H1848       H  0.39522737  0.15984829  0.85157527     0.07000
N1849       N  0.84205940  0.88132840  0.35054604    -0.27400
N1850       N  0.85233632  0.88256741  0.34185145    -0.35300
C1851       C  0.85002217  0.89342814  0.33371245     0.00900
C1852       C  0.83761985  0.89925095  0.33734890     0.06900
C1853       C  0.83294832  0.89134876  0.34813785    -0.06200
H1854       H  0.85715725  0.89712881  0.32611663     0.07600
H1855       H  0.82371680  0.89294964  0.35403111     0.08800
Cu1856     Cu  0.86943734  0.86994608  0.34186601     0.44200
Cu1857     Cu  0.84131928  0.86693056  0.36616895     0.42000
Cu1858     Cu  0.87110937  0.84541950  0.36950168     0.43900
N1859       N  0.88530539  0.85601717  0.34427983    -0.34800
N1860       N  0.88592427  0.84711184  0.35443527    -0.29100
C1861       C  0.89722463  0.83940238  0.35298998    -0.05200
C1862       C  0.90413121  0.84371133  0.34140764     0.07000
C1863       C  0.89619124  0.85417706  0.33607985     0.00800
H1864       H  0.89992826  0.83098579  0.35963118     0.08500
H1865       H  0.89812722  0.85995834  0.32684070     0.07600
N1866       N  0.85512378  0.84547264  0.38343003    -0.36300
N1867       N  0.84412004  0.85322351  0.38218122    -0.28400
C1868       C  0.83585088  0.85097468  0.39294903    -0.03700
C1869       C  0.84202025  0.84146999  0.40148842     0.04900
C1870       C  0.85415445  0.83809543  0.39499741     0.03000
H1871       H  0.82614096  0.85605557  0.39455940     0.08100
H1872       H  0.86165838  0.83068816  0.39829358     0.07000
N1873       N  0.88105010  0.35464638  0.84071359    -0.27400
N1874       N  0.88112787  0.34443307  0.84960031    -0.35300
C1875       C  0.89123612  0.33569449  0.84632926     0.00900
C1876       C  0.89780375  0.34056254  0.83478197     0.06900
C1877       C  0.89113370  0.35265055  0.83159387    -0.06200
H1878       H  0.89396976  0.32677842  0.85231002     0.07600
H1879       H  0.89358991  0.35963454  0.82335015     0.08800
Cu1880     Cu  0.86818860  0.34301170  0.86633672     0.44200
Cu1881     Cu  0.86756736  0.37112611  0.84129583     0.42000
Cu1882     Cu  0.84267161  0.36929587  0.86817002     0.43900
N1883       N  0.85443482  0.34470647  0.88237219    -0.34800
N1884       N  0.84516709  0.35451731  0.88301227    -0.29100
C1885       C  0.83794439  0.35316240  0.89460208    -0.05200
C1886       C  0.84294867  0.34198399  0.90167656     0.07000
C1887       C  0.85329448  0.33675595  0.89354626     0.00800
H1888       H  0.82949878  0.35967481  0.89749530     0.08500
H1889       H  0.85957905  0.32786243  0.89563607     0.07600
N1890       N  0.84246343  0.38419639  0.85324909    -0.36300
N1891       N  0.85183136  0.38528437  0.84359541    -0.28400
C1892       C  0.84900089  0.39638144  0.83594395    -0.03700
C1893       C  0.83731772  0.40260981  0.84110376     0.04900
C1894       C  0.83337425  0.39441044  0.85194663     0.03000
H1895       H  0.85504527  0.39971728  0.82729310     0.08100
H1896       H  0.82443881  0.39555094  0.85833477     0.07000
N1897       N  0.35315173  0.88267432  0.84465428    -0.27400
N1898       N  0.34385822  0.88238590  0.85445739    -0.35300
C1899       C  0.33484930  0.89257212  0.85234650     0.00900
C1900       C  0.33852474  0.89953827  0.84055595     0.06900
C1901       C  0.35029020  0.89303877  0.83605256    -0.06200
H1902       H  0.32619378  0.89472066  0.85890430     0.07600
H1903       H  0.35652760  0.89579926  0.82735605     0.08800
Cu1904     Cu  0.34367913  0.86797668  0.87011992     0.44200
Cu1905     Cu  0.36918130  0.86882530  0.84331835     0.42000
Cu1906     Cu  0.36904414  0.84115973  0.86813376     0.43900
N1907       N  0.34494585  0.85183979  0.88394180    -0.34800
N1908       N  0.35413534  0.84196088  0.88309591    -0.29100
C1909       C  0.35221939  0.83310417  0.89344060    -0.05200
C1910       C  0.34139821  0.83768863  0.90131286     0.07000
C1911       C  0.33693592  0.84952237  0.89487678     0.00800
H1912       H  0.35842553  0.82409334  0.89523946     0.08500
H1913       H  0.32840496  0.85590565  0.89779366     0.07600
N1914       N  0.38318020  0.84288655  0.85251626    -0.36300
N1915       N  0.38331566  0.85299242  0.84353443    -0.28400
C1916       C  0.39374852  0.85103864  0.83481121    -0.03700
C1917       C  0.40040512  0.83904394  0.83836691     0.04900
C1918       C  0.39351761  0.83425894  0.84976282     0.03000
H1919       H  0.39624551  0.85781784  0.82641530     0.08100
H1920       H  0.39597397  0.82533387  0.85582716     0.07000
C1921       C  0.81490135  0.16375373  0.42723460    -0.09300
C1922       C  0.82408428  0.16700607  0.43777212     0.06900
C1923       C  0.83822415  0.16513945  0.43552140    -0.03100
C1924       C  0.84283390  0.15983432  0.42304213    -0.07500
C1925       C  0.83360217  0.15621990  0.41265372     0.06000
C1926       C  0.81949508  0.15839209  0.41479775    -0.02500
Br1927     Br  0.80600965  0.15514332  0.40090918    -0.02200
H1928       H  0.80403734  0.16528838  0.42871057     0.09900
H1929       H  0.85370581  0.15841410  0.42150121     0.07900
Br1930     Br  0.85181628  0.17042784  0.44865218    -0.02700
C1931       C  0.72987971  0.24331222  0.50192889    -0.09300
C1932       C  0.73132544  0.25388267  0.49231455     0.06900
C1933       C  0.74243243  0.25346115  0.48311645    -0.03100
C1934       C  0.75169368  0.24255746  0.48360535    -0.07500
C1935       C  0.75024947  0.23196367  0.49319989     0.06000
C1936       C  0.73910461  0.23236126  0.50236984    -0.02500
Br1937     Br  0.73518479  0.21781395  0.51496207    -0.02200
H1938       H  0.72130787  0.24338669  0.50893730     0.09900
H1939       H  0.76028229  0.24253886  0.47662008     0.07900
Br1940     Br  0.74621517  0.26789911  0.47035636    -0.02700
C1941       C  0.66154384  0.31606525  0.42554461    -0.09300
C1942       C  0.66495376  0.32536375  0.43593129     0.06900
C1943       C  0.66368674  0.33951659  0.43336724    -0.03100
C1944       C  0.65863939  0.34404704  0.42078267    -0.07500
C1945       C  0.65477736  0.33472773  0.41059128     0.06000
C1946       C  0.65648943  0.32060630  0.41296231    -0.02500
Br1947     Br  0.65297697  0.30709171  0.39917026    -0.02200
H1948       H  0.66271730  0.30517931  0.42725406     0.09900
H1949       H  0.65759662  0.35493632  0.41900848     0.07900
Br1950     Br  0.66950343  0.35321685  0.44615761    -0.02700
C1951       C  0.82675857  0.42611208  0.17451093    -0.09300
C1952       C  0.82534527  0.43744758  0.16579073     0.06900
C1953       C  0.82841904  0.43584792  0.15175020    -0.03100
C1954       C  0.83307947  0.42321244  0.14686518    -0.07500
C1955       C  0.83474170  0.41200821  0.15567760     0.06000
C1956       C  0.83135867  0.41349641  0.16959899    -0.02500
Br1957     Br  0.83174744  0.39843560  0.18219438    -0.02200
H1958       H  0.82426143  0.42704029  0.18525228     0.09900
H1959       H  0.83541731  0.42212877  0.13609827     0.07900
Br1960     Br  0.82548794  0.44999439  0.13843535    -0.02700
C1961       C  0.66040438  0.43833346  0.33624921    -0.09300
C1962       C  0.66301478  0.43942013  0.32218847     0.06900
C1963       C  0.65947539  0.42842824  0.31352337    -0.03100
C1964       C  0.65369957  0.41657415  0.31907277    -0.07500
C1965       C  0.65141953  0.41539245  0.33317384     0.06000
C1966       C  0.65467976  0.42647815  0.34178673    -0.02500
Br1967     Br  0.65069293  0.42647632  0.36100598    -0.02200
H1968       H  0.66286532  0.44675841  0.34300247     0.09900
H1969       H  0.65105610  0.40818779  0.31234112     0.07900
Br1970     Br  0.66131221  0.42924035  0.29400165    -0.02700
C1971       C  0.74528445  0.48486183  0.25652308    -0.09300
C1972       C  0.73405693  0.49339200  0.25382847     0.06900
C1973       C  0.73408874  0.50153624  0.24193363    -0.03100
C1974       C  0.74541585  0.50132430  0.23322312    -0.07500
C1975       C  0.75670857  0.49289139  0.23598009     0.06000
C1976       C  0.75657369  0.48457249  0.24776261    -0.02500
Br1977     Br  0.77184080  0.47340119  0.25302191    -0.02200
H1978       H  0.74543482  0.47863603  0.26568683     0.09900
H1979       H  0.74526287  0.50755639  0.22406508     0.07900
Br1980     Br  0.71858531  0.51227785  0.23645535    -0.02700
C1981       C  0.83056722  0.16728651  0.57329193    -0.09300
C1982       C  0.83270209  0.15309382  0.57413313     0.06900
C1983       C  0.82925158  0.14486528  0.56277791    -0.03100
C1984       C  0.82374803  0.15087587  0.55101868    -0.07500
C1985       C  0.82151971  0.16503081  0.55021796     0.06000
C1986       C  0.82500432  0.17328507  0.56152019    -0.02500
Br1987     Br  0.82345564  0.19285262  0.56116129    -0.02200
H1988       H  0.83328005  0.17377943  0.58183847     0.09900
H1989       H  0.82127603  0.14442253  0.54236903     0.07900
Br1990     Br  0.83281263  0.12556567  0.56205199    -0.02700
C1991       C  0.04927138  0.33467194  0.82353681    -0.09300
C1992       C  0.04695516  0.32051778  0.82394368     0.06900
C1993       C  0.05701146  0.31192118  0.82973284    -0.03100
C1994       C  0.06917802  0.31755829  0.83470559    -0.07500
C1995       C  0.07161559  0.33168637  0.83401394     0.06000
C1996       C  0.06142972  0.34030620  0.82848078    -0.02500
Br1997     Br  0.06292359  0.35988936  0.82821870    -0.02200
H1998       H  0.04158667  0.34142539  0.81927814     0.09900
H1999       H  0.07681619  0.31083430  0.83909137     0.07900
Br2000     Br  0.05445449  0.29259289  0.83205856    -0.02700
C2001       C  0.92479377  0.31672529  0.81998862    -0.09300
C2002       C  0.93526255  0.32602337  0.81676172     0.06900
C2003       C  0.93304745  0.34010268  0.81907348    -0.03100
C2004       C  0.92073830  0.34453445  0.82480922    -0.07500
C2005       C  0.91043100  0.33522503  0.82838209     0.06000
C2006       C  0.91247564  0.32117741  0.82577436    -0.02500
Br2007     Br  0.89861234  0.30768147  0.82908710    -0.02200
H2008       H  0.92624287  0.30589713  0.81814388     0.09900
H2009       H  0.91927165  0.35536928  0.82660335     0.07900
Br2010     Br  0.94593457  0.35396794  0.81387577    -0.02700
C2011       C  0.92128868  0.15999517  0.64559391    -0.09300
C2012       C  0.91111201  0.15626437  0.65500244     0.06900
C2013       C  0.91361275  0.15801414  0.66909297    -0.03100
C2014       C  0.92630787  0.16290203  0.67351463    -0.07500
C2015       C  0.93666917  0.16609957  0.66411587     0.06000
C2016       C  0.93397712  0.16487903  0.65001621    -0.02500
Br2017     Br  0.94683797  0.17056153  0.63632578    -0.02200
H2018       H  0.91942815  0.15896109  0.63472981     0.09900
H2019       H  0.92813764  0.16408277  0.68437139     0.07900
Br2020     Br  0.89985917  0.15476736  0.68270598    -0.02700
C2021       C  0.98454138  0.22822958  0.74642960    -0.09300
C2022       C  0.99427558  0.22935309  0.73593211     0.06900
C2023       C  0.00322698  0.24065969  0.73583264    -0.03100
C2024       C  0.00239804  0.25046471  0.74619141    -0.07500
C2025       C  0.99259654  0.24939445  0.75660153     0.06000
C2026       C  0.98366815  0.23809583  0.75674300    -0.02500
Br2027     Br  0.97070332  0.23516384  0.77117675    -0.02200
H2028       H  0.97767485  0.21955071  0.74669536     0.09900
H2029       H  0.00918895  0.25920285  0.74588589     0.07900
Br2030     Br  0.01590645  0.24403500  0.72124125    -0.02700
C2031       C  0.06404901  0.14070007  0.65913530    -0.09300
C2032       C  0.07387119  0.15013852  0.65458305     0.06900
C2033       C  0.07141071  0.16424874  0.65638205    -0.03100
C2034       C  0.05918339  0.16863699  0.66234263    -0.07500
C2035       C  0.04922203  0.15921657  0.66652453     0.06000
C2036       C  0.05178364  0.14511472  0.66502966    -0.02500
Br2037     Br  0.03934230  0.13146381  0.67166994    -0.02200
H2038       H  0.06589706  0.12982950  0.65805577     0.09900
H2039       H  0.05740289  0.17949559  0.66363738     0.07900
Br2040     Br  0.08465571  0.17801503  0.65187240    -0.02700
C2041       C  0.32148065  0.04935931  0.83981572    -0.09300
C2042       C  0.31926608  0.04816373  0.82568200     0.06900
C2043       C  0.32366438  0.05883792  0.81699557    -0.03100
C2044       C  0.32987609  0.07045741  0.82257039    -0.07500
C2045       C  0.33187797  0.07173041  0.83672133     0.06000
C2046       C  0.32773457  0.06095544  0.84537191    -0.02500
Br2047     Br  0.33134633  0.06085798  0.86466418    -0.02200
H2048       H  0.31841454  0.04116516  0.84660078     0.09900
H2049       H  0.33320241  0.07854714  0.81577947     0.07900
Br2050     Br  0.32264122  0.05781627  0.79742108    -0.02700
C2051       C  0.32680562  0.92182406  0.84393260    -0.09300
C2052       C  0.33187665  0.91194569  0.83484135     0.06900
C2053       C  0.33030961  0.91413454  0.82064324    -0.03100
C2054       C  0.32432504  0.92626827  0.81587643    -0.07500
C2055       C  0.31969989  0.93634458  0.82499541     0.06000
C2056       C  0.32070973  0.93386632  0.83917878    -0.02500
Br2057     Br  0.31303961  0.94592670  0.85263349    -0.02200
H2058       H  0.32762626  0.92021159  0.85485436     0.09900
H2059       H  0.32334543  0.92786037  0.80496273     0.07900
Br2060     Br  0.33509090  0.90061331  0.80725021    -0.02700
C2061       C  0.16609210  0.05958197  0.67043319    -0.09300
C2062       C  0.16847875  0.04920215  0.66080449     0.06900
C2063       C  0.16572464  0.05175510  0.64688602    -0.03100
C2064       C  0.16014951  0.06430831  0.64294078    -0.07500
C2065       C  0.15728898  0.07447291  0.65263986     0.06000
C2066       C  0.16055178  0.07215379  0.66646502    -0.02500
Br2067     Br  0.15856974  0.08607584  0.68015233    -0.02200
H2068       H  0.16845110  0.05787743  0.68111763     0.09900
H2069       H  0.15798562  0.06612139  0.63222998     0.07900
Br2070     Br  0.17027912  0.03899836  0.63268543    -0.02700
C2071       C  0.23557457  0.00173414  0.73890531    -0.09300
C2072       C  0.23810243  0.99307256  0.72777879     0.06900
C2073       C  0.24980579  0.98467678  0.72788469    -0.03100
C2074       C  0.25857085  0.98483932  0.73919707    -0.07500
C2075       C  0.25594894  0.99338316  0.75043831     0.06000
C2076       C  0.24427918  0.00189031  0.75022154    -0.02500
Br2077     Br  0.23885531  0.01301457  0.76545412    -0.02200
H2078       H  0.22650838  0.00810344  0.73900088     0.09900
H2079       H  0.26758428  0.97840089  0.73912760     0.07900
Br2080     Br  0.25475265  0.97349582  0.71254002    -0.02700
C2081       C  0.15583141  0.91330181  0.66760417    -0.09300
C2082       C  0.15483057  0.91137113  0.65341026     0.06900
C2083       C  0.15828932  0.92228254  0.64461182    -0.03100
C2084       C  0.16302156  0.93462510  0.65006874    -0.07500
C2085       C  0.16443814  0.93639547  0.66422848     0.06000
C2086       C  0.16061465  0.92564461  0.67305457    -0.02500
Br2087     Br  0.16082184  0.92749975  0.69259052    -0.02200
H2088       H  0.15293871  0.90513550  0.67450569     0.09900
H2089       H  0.16570624  0.94287036  0.64317944     0.07900
Br2090     Br  0.15585467  0.92143853  0.62515922    -0.02700
C2091       C  0.14455169  0.82904883  0.56360196    -0.09300
C2092       C  0.15379616  0.83084132  0.57442814     0.06900
C2093       C  0.16759976  0.82720347  0.57254680    -0.03100
C2094       C  0.17201875  0.82237383  0.55984571    -0.07500
C2095       C  0.16288296  0.82095575  0.54884832     0.06000
C2096       C  0.14894302  0.82413193  0.55089637    -0.02500
Br2097     Br  0.13520550  0.82098532  0.53723531    -0.02200
H2098       H  0.13384772  0.83151330  0.56502796     0.09900
H2099       H  0.18269345  0.81972032  0.55857264     0.07900
Br2100     Br  0.18063209  0.82756732  0.58721890    -0.02700
C2101       C  0.16305989  0.81460892  0.42625972    -0.09300
C2102       C  0.16756284  0.82389791  0.43621258     0.06900
C2103       C  0.16650632  0.83803175  0.43362594    -0.03100
C2104       C  0.16053079  0.84262313  0.42148945    -0.07500
C2105       C  0.15552026  0.83336524  0.41172296     0.06000
C2106       C  0.15705292  0.81919341  0.41409489    -0.02500
Br2107     Br  0.15197802  0.80558693  0.40089956    -0.02200
H2108       H  0.16403718  0.80371353  0.42804340     0.09900
H2109       H  0.15967454  0.85353278  0.41976241     0.07900
Br2110     Br  0.17375739  0.85153625  0.44588255    -0.02700
C2111       C  0.24376441  0.73240879  0.50365773    -0.09300
C2112       C  0.25519912  0.73388886  0.49512044     0.06900
C2113       C  0.25603117  0.74540124  0.48645767    -0.03100
C2114       C  0.24535514  0.75493357  0.48622368    -0.07500
C2115       C  0.23386847  0.75337585  0.49468139     0.06000
C2116       C  0.23313444  0.74196183  0.50348435    -0.02500
Br2117     Br  0.21748191  0.73815630  0.51470190    -0.02200
H2118       H  0.24288910  0.72354523  0.51024785     0.09900
H2119       H  0.24616669  0.76377561  0.47959406     0.07900
Br2120     Br  0.27184832  0.74924980  0.47550174    -0.02700
C2121       C  0.31383484  0.65001756  0.41656923    -0.09300
C2122       C  0.32805072  0.64927757  0.41459397     0.06900
C2123       C  0.33679469  0.65213038  0.42574185    -0.03100
C2124       C  0.33128668  0.65644114  0.43821364    -0.07500
C2125       C  0.31713539  0.65788167  0.43991136     0.06000
C2126       C  0.30834999  0.65423835  0.42910066    -0.02500
Br2127     Br  0.28883858  0.65403005  0.43122130    -0.02200
H2128       H  0.30694874  0.64746787  0.40828134     0.09900
H2129       H  0.33811794  0.65884310  0.44659530     0.07900
Br2130     Br  0.35622384  0.64940980  0.42503434    -0.02700
C2131       C  0.43658171  0.82740957  0.15312036    -0.09300
C2132       C  0.43708754  0.82664327  0.16744487     0.06900
C2133       C  0.42559238  0.83082111  0.17507135    -0.03100
C2134       C  0.41386902  0.83551223  0.16831119    -0.07500
C2135       C  0.41326756  0.83603894  0.15396950     0.06000
C2136       C  0.42482681  0.83199533  0.14635554    -0.02500
Br2137     Br  0.42562861  0.83344095  0.12680913    -0.02200
H2138       H  0.44538779  0.82438478  0.14712896     0.09900
H2139       H  0.40515555  0.83877983  0.17431159     0.07900
Br2140     Br  0.42560917  0.83129782  0.19468626    -0.02700
C2141       C  0.43218730  0.66607123  0.34009707    -0.09300
C2142       C  0.43424998  0.66696403  0.32593890     0.06900
C2143       C  0.42376682  0.66257869  0.31707396    -0.03100
C2144       C  0.41151627  0.65746438  0.32245738    -0.07500
C2145       C  0.40934395  0.65668168  0.33664853     0.06000
C2146       C  0.41989757  0.66107453  0.34550972    -0.02500
Br2147     Br  0.41878558  0.65962136  0.36504204    -0.02200
H2148       H  0.44021852  0.66928015  0.34701560     0.09900
H2149       H  0.40363625  0.65404450  0.31547122     0.07900
Br2150     Br  0.42595912  0.66236805  0.29757620    -0.02700
C2151       C  0.48092433  0.73415736  0.24698563    -0.09300
C2152       C  0.49197205  0.73408730  0.25616532     0.06900
C2153       C  0.50267352  0.74359119  0.25422424    -0.03100
C2154       C  0.50214415  0.75278559  0.24328076    -0.07500
C2155       C  0.49106720  0.75291273  0.23413662     0.06000
C2156       C  0.48040298  0.74335744  0.23602848    -0.02500
Br2157     Br  0.46531103  0.74153518  0.22361033    -0.02200
H2158       H  0.47273137  0.72681186  0.24816539     0.09900
H2159       H  0.51031961  0.76015717  0.24215807     0.07900
Br2160     Br  0.51778167  0.74549214  0.26662279    -0.02700
C2161       C  0.07525929  0.81799443  0.65807992    -0.09300
C2162       C  0.07582546  0.83197566  0.65498139     0.06900
C2163       C  0.06414077  0.84014786  0.65695502    -0.03100
C2164       C  0.05215180  0.83425193  0.66202195    -0.07500
C2165       C  0.05156209  0.82025454  0.66524110     0.06000
C2166       C  0.06329984  0.81208222  0.66320643    -0.02500
Br2167     Br  0.06346399  0.79265843  0.66606429    -0.02200
H2168       H  0.08415635  0.81161270  0.65639956     0.09900
H2169       H  0.04321914  0.84064799  0.66339695     0.07900
Br2170     Br  0.06362972  0.85912037  0.65190344    -0.02700
C2171       C  0.00283656  0.74177058  0.73258850    -0.09300
C2172       C  0.99338001  0.75246393  0.73414878     0.06900
C2173       C  0.98403185  0.75199546  0.74514219    -0.03100
C2174       C  0.98445633  0.74106112  0.75436540    -0.07500
C2175       C  0.99415368  0.73057618  0.75297496     0.06000
C2176       C  0.00323912  0.73085289  0.74180235    -0.02500
Br2177     Br  0.01576654  0.71621750  0.73801489    -0.02200
H2178       H  0.00985466  0.74179770  0.72402950     0.09900
H2179       H  0.97745100  0.74098059  0.76293771     0.07900
Br2180     Br  0.97124130  0.76641158  0.74891129    -0.02700
C2181       C  0.83520427  0.05052558  0.66310621    -0.09300
C2182       C  0.82092942  0.04925468  0.66239565     0.06900
C2183       C  0.81320736  0.06002499  0.65675308    -0.03100
C2184       C  0.81981357  0.07182497  0.65204403    -0.07500
C2185       C  0.83411165  0.07317000  0.65283749     0.06000
C2186       C  0.84183163  0.06230953  0.65842064    -0.02500
Br2187     Br  0.86145188  0.06228365  0.65890303    -0.02200
H2188       H  0.84127022  0.04222984  0.66724865     0.09900
H2189       H  0.81372369  0.07996540  0.64764479     0.07900
Br2190     Br  0.79380247  0.05872936  0.65418965    -0.02700
C2191       C  0.75655083  0.00211812  0.74534354    -0.09300
C2192       C  0.75566472  0.99190635  0.73530241     0.06900
C2193       C  0.74544648  0.98178609  0.73655127    -0.03100
C2194       C  0.73638840  0.98210148  0.74763895    -0.07500
C2195       C  0.73717076  0.99241422  0.75761360     0.06000
C2196       C  0.74755230  0.00238472  0.75647567    -0.02500
Br2197     Br  0.75074040  0.01600285  0.77023034    -0.02200
H2198       H  0.76449651  0.00979787  0.74468746     0.09900
H2199       H  0.72843076  0.97443239  0.74824207     0.07900
Br2200     Br  0.74254564  0.96792875  0.72296051    -0.02700
C2201       C  0.83283106  0.57285158  0.16776080    -0.09300
C2202       C  0.83424235  0.57374203  0.15350509     0.06900
C2203       C  0.83064525  0.56236455  0.14538937    -0.03100
C2204       C  0.82563679  0.55049909  0.15160824    -0.07500
C2205       C  0.82410481  0.54967808  0.16584792     0.06000
C2206       C  0.82783482  0.56098441  0.17396766    -0.02500
Br2207     Br  0.82749408  0.56051109  0.19358315    -0.02200
H2208       H  0.83569416  0.58142775  0.17414757     0.09900
H2209       H  0.82300906  0.54180603  0.14527314     0.07900
Br2210     Br  0.83336640  0.56184207  0.12595747    -0.02700
C2211       C  0.06548496  0.82742014  0.34069067    -0.09300
C2212       C  0.07585414  0.83164308  0.33173829     0.06900
C2213       C  0.07399596  0.82998514  0.31753063    -0.03100
C2214       C  0.06176551  0.82446467  0.31256283    -0.07500
C2215       C  0.05121161  0.82071987  0.32152398     0.06000
C2216       C  0.05322163  0.82207019  0.33573359    -0.02500
Br2217     Br  0.03994676  0.81619467  0.34894933    -0.02200
H2218       H  0.06682620  0.82849678  0.35162896     0.09900
H2219       H  0.06039320  0.82332857  0.30163331     0.07900
Br2220     Br  0.08795541  0.83441508  0.30447047    -0.02700
C2221       C  0.93954157  0.82827234  0.33675873    -0.09300
C2222       C  0.93978882  0.82596919  0.32259686     0.06900
C2223       C  0.92832187  0.82974194  0.31469139    -0.03100
C2224       C  0.91689302  0.83555710  0.32103748    -0.07500
C2225       C  0.91655080  0.83764281  0.33523472     0.06000
C2226       C  0.92808167  0.83399689  0.34311724    -0.02500
Br2227     Br  0.92928786  0.83741706  0.36240176    -0.02200
H2228       H  0.94832700  0.82558471  0.34294635     0.09900
H2229       H  0.90818259  0.83841643  0.31482537     0.07900
Br2230     Br  0.92793051  0.82816332  0.29513571    -0.02700
C2231       C  0.91812985  0.66129897  0.14541096    -0.09300
C2232       C  0.90873275  0.65777260  0.15567271     0.06900
C2233       C  0.91256951  0.65914167  0.16948972    -0.03100
C2234       C  0.92559780  0.66401992  0.17276473    -0.07500
C2235       C  0.93501512  0.66748303  0.16249137     0.06000
C2236       C  0.93118823  0.66606322  0.14868236    -0.02500
Br2237     Br  0.94286298  0.67136728  0.13383801    -0.02200
H2238       H  0.91532234  0.66030697  0.13474576     0.09900
H2239       H  0.92836504  0.66519589  0.18342469     0.07900
Br2240     Br  0.90023169  0.65546511  0.18429970    -0.02700
C2241       C  0.98372018  0.73373612  0.24197209    -0.09300
C2242       C  0.99057588  0.73678165  0.22975283     0.06900
C2243       C  0.99749629  0.74933181  0.22841970    -0.03100
C2244       C  0.99793012  0.75838329  0.23943973    -0.07500
C2245       C  0.99129316  0.75524738  0.25174330     0.06000
C2246       C  0.98405602  0.74285368  0.25297099    -0.02500
Br2247     Br  0.97535304  0.73744978  0.26970863    -0.02200
H2248       H  0.97841562  0.72407765  0.24308910     0.09900
H2249       H  0.00326802  0.76802309  0.23832515     0.07900
Br2250     Br  0.00567061  0.75501765  0.21150805    -0.02700
C2251       C  0.07206781  0.66841876  0.15547474    -0.09300
C2252       C  0.07230862  0.65419845  0.15348438     0.06900
C2253       C  0.06031321  0.64660553  0.15599119    -0.03100
C2254       C  0.04844825  0.65326988  0.16041461    -0.07500
C2255       C  0.04817650  0.66749703  0.16241377     0.06000
C2256       C  0.06019917  0.67510112  0.15990586    -0.02500
Br2257     Br  0.06088519  0.69468764  0.16112007    -0.02200
H2258       H  0.08115119  0.67441123  0.15341186     0.09900
H2259       H  0.03930869  0.64726948  0.16217556     0.07900
Br2260     Br  0.05903248  0.62735959  0.15237696    -0.02700
C2261       C  0.32699615  0.83487115  0.04933008    -0.09300
C2262       C  0.32288597  0.82109659  0.04941579     0.06900
C2263       C  0.32450020  0.81342821  0.06156570    -0.03100
C2264       C  0.33002711  0.81962296  0.07324261    -0.07500
C2265       C  0.33389159  0.83343810  0.07317178     0.06000
C2266       C  0.33239460  0.84106950  0.06103923    -0.02500
Br2267     Br  0.33839546  0.85969644  0.05956249    -0.02200
H2268       H  0.32598347  0.84089612  0.04009112     0.09900
H2269       H  0.33129399  0.81361279  0.08246277     0.07900
Br2270     Br  0.32034210  0.79428078  0.06272533    -0.02700
C2271       C  0.32719905  0.83225907  0.93708192    -0.09300
C2272       C  0.32583354  0.81797761  0.93754960     0.06900
C2273       C  0.32970197  0.81021904  0.92602106    -0.03100
C2274       C  0.33466251  0.81684636  0.91431769    -0.07500
C2275       C  0.33586878  0.83116776  0.91382163     0.06000
C2276       C  0.33220037  0.83886990  0.92544896    -0.02500
Br2277     Br  0.33491407  0.85827335  0.92671670    -0.02200
H2278       H  0.32444997  0.83836269  0.94589510     0.09900
H2279       H  0.33764992  0.81075953  0.90557057     0.07900
Br2280     Br  0.32951317  0.79058527  0.92596951    -0.02700
C2281       C  0.16162052  0.64980363  0.05218209    -0.09300
C2282       C  0.16410461  0.66388209  0.05095220     0.06900
C2283       C  0.16070723  0.67257980  0.06195943    -0.03100
C2284       C  0.15518982  0.66704114  0.07395974    -0.07500
C2285       C  0.15297075  0.65291524  0.07525517     0.06000
C2286       C  0.15608241  0.64428545  0.06412941    -0.02500
Br2287     Br  0.15195571  0.62508579  0.06406367    -0.02200
H2288       H  0.16394668  0.64301389  0.04374687     0.09900
H2289       H  0.15260543  0.67381463  0.08233236     0.07900
Br2290     Br  0.16228238  0.69212704  0.06090702    -0.02700
C2291       C  0.23059974  0.74350093  0.00021101    -0.09300
C2292       C  0.23344264  0.73132000  0.99322024     0.06900
C2293       C  0.24587071  0.72997719  0.98609182    -0.03100
C2294       C  0.25519474  0.74080592  0.98600468    -0.07500
C2295       C  0.25239986  0.75300164  0.99304570     0.06000
C2296       C  0.23989211  0.75435823  0.00009046    -0.02500
Br2297     Br  0.23445482  0.77105675  0.00884693    -0.02200
H2298       H  0.22097173  0.74467394  0.00555671     0.09900
H2299       H  0.26482610  0.73956172  0.98068663     0.07900
Br2300     Br  0.25105942  0.71326719  0.97719873    -0.02700
C2301       C  0.55987975  0.81545592  0.16618195    -0.09300
C2302       C  0.54935672  0.82466391  0.16952013     0.06900
C2303       C  0.55171213  0.83882527  0.16782299    -0.03100
C2304       C  0.56411378  0.84340406  0.16235663    -0.07500
C2305       C  0.57441092  0.83416833  0.15854840     0.06000
C2306       C  0.57231217  0.82007028  0.16075722    -0.02500
Br2307     Br  0.58633720  0.80674606  0.15744282    -0.02200
H2308       H  0.55839151  0.80457972  0.16765954     0.09900
H2309       H  0.56568612  0.85428798  0.16099674     0.07900
Br2310     Br  0.53894792  0.85256424  0.17364680    -0.02700
C2311       C  0.83437822  0.04979412  0.32885901    -0.09300
C2312       C  0.82017827  0.04886175  0.32716139     0.06900
C2313       C  0.81187734  0.06001629  0.33091787    -0.03100
C2314       C  0.81789423  0.07200398  0.33588616    -0.07500
C2315       C  0.83215848  0.07315790  0.33708030     0.06000
C2316       C  0.84042446  0.06179850  0.33371443    -0.02500
Br2317     Br  0.85989382  0.06161532  0.33624824    -0.02200
H2318       H  0.84083267  0.04118929  0.32621083     0.09900
H2319       H  0.81139474  0.08053487  0.33865147     0.07900
Br2320     Br  0.79228806  0.05917363  0.33016642    -0.02700
C2321       C  0.82524789  0.92763138  0.31365535    -0.09300
C2322       C  0.81955021  0.93687921  0.32302542     0.06900
C2323       C  0.81947216  0.93344904  0.33703928    -0.03100
C2324       C  0.82531740  0.92113000  0.34140818    -0.07500
C2325       C  0.83137244  0.91203867  0.33207996     0.06000
C2326       C  0.83116796  0.91534730  0.31802668    -0.02500
Br2327     Br  0.83802515  0.90328918  0.30415664    -0.02200
H2328       H  0.82527202  0.93005316  0.30284827     0.09900
H2329       H  0.82523116  0.91871204  0.35221494     0.07900
Br2330     Br  0.81085449  0.94468246  0.35063501    -0.02700
C2331       C  0.65281208  0.91663256  0.16943487    -0.09300
C2332       C  0.65138019  0.91575576  0.15515922     0.06900
C2333       C  0.65468244  0.92730184  0.14712532    -0.03100
C2334       C  0.65939550  0.93926412  0.15339608    -0.07500
C2335       C  0.66097432  0.94007670  0.16762870     0.06000
C2336       C  0.65757370  0.92860553  0.17569606    -0.02500
Br2337     Br  0.65818061  0.92895887  0.19531015    -0.02200
H2338       H  0.65015603  0.90795742  0.17578997     0.09900
H2339       H  0.66183286  0.94802725  0.14707289     0.07900
Br2340     Br  0.65198520  0.92795547  0.12770311    -0.02700
C2341       C  0.74411379  0.00534257  0.23161843    -0.09300
C2342       C  0.73366004  0.99564101  0.23333014     0.06900
C2343       C  0.73473776  0.98602794  0.24405978    -0.03100
C2344       C  0.74618455  0.98615702  0.25262320    -0.07500
C2345       C  0.75664026  0.99582449  0.25088583     0.06000
C2346       C  0.75556043  0.00546922  0.24021416    -0.02500
Br2347     Br  0.76979270  0.01837579  0.23621015    -0.02200
H2348       H  0.74353843  0.01268738  0.22334182     0.09900
H2349       H  0.74674781  0.97884089  0.26092955     0.07900
Br2350     Br  0.72054885  0.97315368  0.24834802    -0.02700
C2351       C  0.66042155  0.05369335  0.15261202    -0.09300
C2352       C  0.66225587  0.05273724  0.16681958     0.06900
C2353       C  0.65893448  0.06411902  0.17504641    -0.03100
C2354       C  0.65437846  0.07625941  0.16895482    -0.07500
C2355       C  0.65292629  0.07733285  0.15471320     0.06000
C2356       C  0.65574240  0.06578982  0.14653619    -0.02500
Br2357     Br  0.65223424  0.06544075  0.12722962    -0.02200
H2358       H  0.66260225  0.04495271  0.14617455     0.09900
H2359       H  0.65190222  0.08491270  0.17540747     0.07900
Br2360     Br  0.65922101  0.06340712  0.19465699    -0.02700
C2361       C  0.83712079  0.32648935  0.05086144    -0.09300
C2362       C  0.82320987  0.32291762  0.05044174     0.06900
C2363       C  0.81522252  0.32461772  0.06235690    -0.03100
C2364       C  0.82120829  0.32983553  0.07426734    -0.07500
C2365       C  0.83510577  0.33335003  0.07465078     0.06000
C2366       C  0.84309810  0.33163274  0.06278940    -0.02500
Br2367     Br  0.86190563  0.33717020  0.06186873    -0.02200
H2368       H  0.84339438  0.32536950  0.04181283     0.09900
H2369       H  0.81493828  0.33124263  0.08328068     0.07900
Br2370     Br  0.79591349  0.32115440  0.06286551    -0.02700
C2371       C  0.82886968  0.33889104  0.93767702    -0.09300
C2372       C  0.82616075  0.32481244  0.93848301     0.06900
C2373       C  0.82974654  0.31634855  0.92735083    -0.03100
C2374       C  0.83540640  0.32213315  0.91555476    -0.07500
C2375       C  0.83764100  0.33627037  0.91459711     0.06000
C2376       C  0.83457874  0.34464962  0.92591436    -0.02500
Br2377     Br  0.83881039  0.36382234  0.92633673    -0.02200
H2378       H  0.82645944  0.34549673  0.94622219     0.09900
H2379       H  0.83796160  0.31555471  0.90703023     0.07900
Br2380     Br  0.82815511  0.29678579  0.92787945    -0.02700
C2381       C  0.65184858  0.16635023  0.05114931    -0.09300
C2382       C  0.66607176  0.16674215  0.04935260     0.06900
C2383       C  0.67460220  0.16189224  0.05992625    -0.03100
C2384       C  0.66882027  0.15690333  0.07204359    -0.07500
C2385       C  0.65458417  0.15674668  0.07395552     0.06000
C2386       C  0.64605997  0.16148190  0.06329358    -0.02500
Br2387     Br  0.62646804  0.16066455  0.06414074    -0.02200
H2388       H  0.64517605  0.16986617  0.04303861     0.09900
H2389       H  0.67550260  0.15315467  0.08003879     0.07900
Br2390     Br  0.69411213  0.16090190  0.05807132    -0.02700
C2391       C  0.73456086  0.24397849  0.99958480    -0.09300
C2392       C  0.73677446  0.23253808  0.99121214     0.06900
C2393       C  0.74859921  0.23209313  0.98294696    -0.03100
C2394       C  0.75782501  0.24305029  0.98311656    -0.07500
C2395       C  0.75561952  0.25442026  0.99158701     0.06000
C2396       C  0.74379139  0.25487479  0.99979244    -0.02500
Br2397     Br  0.73915528  0.27048892  0.01074299    -0.02200
H2398       H  0.72543737  0.24458317  0.00582818     0.09900
H2399       H  0.76696521  0.24251952  0.97688621     0.07900
Br2400     Br  0.75332656  0.21641933  0.97212514    -0.02700
C2401       C  0.42612056  0.16914709  0.81966663    -0.09300
C2402       C  0.43598381  0.15952181  0.81565194     0.06900
C2403       C  0.43298989  0.14547751  0.81686593    -0.03100
C2404       C  0.42060680  0.14133431  0.82267026    -0.07500
C2405       C  0.41097679  0.15095948  0.82725778     0.06000
C2406       C  0.41368691  0.16501365  0.82537608    -0.02500
Br2407     Br  0.40059165  0.17905284  0.82949882    -0.02200
H2408       H  0.42815052  0.17997517  0.81851776     0.09900
H2409       H  0.41858668  0.13049957  0.82375031     0.07900
Br2410     Br  0.44494992  0.13149438  0.81001958    -0.02700
C2411       C  0.48462936  0.24392894  0.75529962    -0.09300
C2412       C  0.49385555  0.23297487  0.75424415     0.06900
C2413       C  0.50270589  0.23233106  0.74289379    -0.03100
C2414       C  0.50241756  0.24268852  0.73307427    -0.07500
C2415       C  0.49328826  0.25371531  0.73413933     0.06000
C2416       C  0.48430433  0.25429826  0.74542816    -0.02500
Br2417     Br  0.47205591  0.26932677  0.74856855    -0.02200
H2418       H  0.47780260  0.24455729  0.76399148     0.09900
H2419       H  0.50917408  0.24192100  0.72434415     0.07900
Br2420     Br  0.51456679  0.21705881  0.73946515    -0.02700
C2421       C  0.43008516  0.31501569  0.65926948    -0.09300
C2422       C  0.44011619  0.32408590  0.66399207     0.06900
C2423       C  0.43770748  0.33826310  0.66325234    -0.03100
C2424       C  0.42546422  0.34312196  0.65765358    -0.07500
C2425       C  0.41551110  0.33406750  0.65259867     0.06000
C2426       C  0.41788459  0.31984038  0.65356659    -0.02500
Br2427     Br  0.40462825  0.30638268  0.64826322    -0.02200
H2428       H  0.43178355  0.30408493  0.65996552     0.09900
H2429       H  0.42376240  0.35405984  0.65716944     0.07900
Br2430     Br  0.45039499  0.35137830  0.67046650    -0.02700
C2431       C  0.14691535  0.43280797  0.82018425    -0.09300
C2432       C  0.16107164  0.43506301  0.81970722     0.06900
C2433       C  0.16998495  0.42482921  0.82463138    -0.03100
C2434       C  0.16465639  0.41256711  0.82966803    -0.07500
C2435       C  0.15051307  0.41019824  0.82995716     0.06000
C2436       C  0.14157321  0.42052930  0.82523312    -0.02500
Br2437     Br  0.12202588  0.41910157  0.82636337    -0.02200
H2438       H  0.13995643  0.44065819  0.81662296     0.09900
H2439       H  0.17163878  0.40483714  0.83343465     0.07900
Br2440     Br  0.18942541  0.42729283  0.82584980    -0.02700
C2441       C  0.34297131  0.42203133  0.65908056    -0.09300
C2442       C  0.33391672  0.41106573  0.65715585     0.06900
C2443       C  0.32009580  0.41268111  0.66093208    -0.03100
C2444       C  0.31552557  0.42523524  0.66606794    -0.07500
C2445       C  0.32448865  0.43636025  0.66757461     0.06000
C2446       C  0.33842853  0.43456930  0.66425354    -0.02500
Br2447     Br  0.35203086  0.44836806  0.66741774    -0.02200
H2448       H  0.35367199  0.42087642  0.65647315     0.09900
H2449       H  0.30484781  0.42632571  0.66878807     0.07900
Br2450     Br  0.30717192  0.39793184  0.66021592    -0.02700
C2451       C  0.25369268  0.48369861  0.74352322    -0.09300
C2452       C  0.25155167  0.49228357  0.73220107     0.06900
C2453       C  0.23956592  0.50029735  0.73163077    -0.03100
C2454       C  0.23020794  0.49985376  0.74242490    -0.07500
C2455       C  0.23239625  0.49131994  0.75375534     0.06000
C2456       C  0.24426894  0.48316720  0.75425721    -0.02500
Br2457     Br  0.24866731  0.47186288  0.76970317    -0.02200
H2458       H  0.26288728  0.47756128  0.74416270     0.09900
H2459       H  0.22099989  0.50597855  0.74181486     0.07900
Br2460     Br  0.23478103  0.51114326  0.71598009    -0.02700
C2461       C  0.64392018  0.06194202  0.83016039    -0.09300
C2462       C  0.65301933  0.07173603  0.83540242     0.06900
C2463       C  0.66722075  0.06916971  0.83461775    -0.03100
C2464       C  0.67196906  0.05702214  0.82869736    -0.07500
C2465       C  0.66284291  0.04720134  0.82359733     0.06000
C2466       C  0.64867271  0.04977003  0.82434173    -0.02500
Br2467     Br  0.63531509  0.03757965  0.81671768    -0.02200
H2468       H  0.63300573  0.06376240  0.83056855     0.09900
H2469       H  0.68288028  0.05521754  0.82811127     0.07900
Br2470     Br  0.68074606  0.08212307  0.84047458    -0.02700
C2471       C  0.64437452  0.15938721  0.92269579    -0.09300
C2472       C  0.65322714  0.15405575  0.91273589     0.06900
C2473       C  0.66748216  0.15518732  0.91474171    -0.03100
C2474       C  0.67255549  0.16097293  0.92680912    -0.07500
C2475       C  0.66368169  0.16578395  0.93700340     0.06000
C2476       C  0.64945126  0.16525063  0.93470908    -0.02500
Br2477     Br  0.63646053  0.17323209  0.94706780    -0.02200
H2478       H  0.63341449  0.15891068  0.92118652     0.09900
H2479       H  0.68351410  0.16161964  0.92827674     0.07900
Br2480     Br  0.68055684  0.15000624  0.90105308    -0.02700
C2481       C  0.56215349  0.15453289  0.84269196    -0.09300
C2482       C  0.57305588  0.15154060  0.83384546     0.06900
C2483       C  0.57159101  0.15431700  0.81976905    -0.03100
C2484       C  0.55931973  0.15975478  0.81479262    -0.07500
C2485       C  0.54827035  0.16233939  0.82356657     0.06000
C2486       C  0.54980423  0.15979257  0.83768471    -0.02500
Br2487     Br  0.53575695  0.16402022  0.85072269    -0.02200
H2488       H  0.56319795  0.15264355  0.85355491     0.09900
H2489       H  0.55834885  0.16181852  0.80395471     0.07900
Br2490     Br  0.58619471  0.15168008  0.80694271    -0.02700
C2491       C  0.06900286  0.64513769  0.82712847    -0.09300
C2492       C  0.07798676  0.65467577  0.83298377     0.06900
C2493       C  0.07420058  0.66860497  0.83327524    -0.03100
C2494       C  0.06163856  0.67267587  0.82774561    -0.07500
C2495       C  0.05264269  0.66309029  0.82200037     0.06000
C2496       C  0.05644737  0.64918614  0.82168174    -0.02500
Br2497     Br  0.04551452  0.63535201  0.81305051    -0.02200
H2498       H  0.07176458  0.63439682  0.82675657     0.09900
H2499       H  0.05886872  0.68341908  0.82793767     0.07900
Br2500     Br  0.08601977  0.68267551  0.84015280    -0.02700
C2501       C  0.16433885  0.64566658  0.93782854    -0.09300
C2502       C  0.16592114  0.65990528  0.93878449     0.06900
C2503       C  0.16196256  0.66818824  0.92765304    -0.03100
C2504       C  0.15659496  0.66215410  0.91588557    -0.07500
C2505       C  0.15505321  0.64792162  0.91488941     0.06000
C2506       C  0.15899399  0.63962208  0.92602278    -0.02500
Br2507     Br  0.15635018  0.62016684  0.92626634    -0.02200
H2508       H  0.16719793  0.63919966  0.94635848     0.09900
H2509       H  0.15351160  0.66866740  0.90747148     0.07900
Br2510     Br  0.16246200  0.68781381  0.92819503    -0.02700
C2511       C  0.14401003  0.56445250  0.82461280    -0.09300
C2512       C  0.15371165  0.57328384  0.83043038     0.06900
C2513       C  0.16766338  0.56965871  0.83005371    -0.03100
C2514       C  0.17158277  0.55712303  0.82443265    -0.07500
C2515       C  0.16181923  0.54806940  0.81910733     0.06000
C2516       C  0.14794741  0.55193638  0.81895399    -0.02500
Br2517     Br  0.13411019  0.54103331  0.81031074    -0.02200
H2518       H  0.13329247  0.56724504  0.82455814     0.09900
H2519       H  0.18231815  0.55439521  0.82429461     0.07900
Br2520     Br  0.18190788  0.58173379  0.83611269    -0.02700
C2521       C  0.65892946  0.81637745  0.06146899    -0.09300
C2522       C  0.66202728  0.82514694  0.05054207     0.06900
C2523       C  0.65942994  0.83928447  0.05197257    -0.03100
C2524       C  0.65385925  0.84433056  0.06415468    -0.07500
C2525       C  0.65056614  0.83553992  0.07501998     0.06000
C2526       C  0.65316296  0.82139684  0.07357825    -0.02500
Br2527     Br  0.64995921  0.80847943  0.08800467    -0.02200
H2528       H  0.66092730  0.80551952  0.06055378     0.09900
H2529       H  0.65203810  0.85521555  0.06512094     0.07900
Br2530     Br  0.66405105  0.85237761  0.03808365    -0.02700
C2531       C  0.82347557  0.67290686  0.06060433    -0.09300
C2532       C  0.82166656  0.66394713  0.04954990     0.06900
C2533       C  0.82448632  0.64991346  0.05136788    -0.03100
C2534       C  0.82949733  0.64521804  0.06392520    -0.07500
C2535       C  0.83173266  0.65426512  0.07484217     0.06000
C2536       C  0.82841637  0.66821260  0.07317094    -0.02500
Br2537     Br  0.82935775  0.68118545  0.08786809    -0.02200
H2538       H  0.82107495  0.68366562  0.05945670     0.09900
H2539       H  0.83170664  0.63442748  0.06514378     0.07900
Br2540     Br  0.82074056  0.63652383  0.03752092    -0.02700
C2541       C  0.75516592  0.74625312  0.98643261    -0.09300
C2542       C  0.75407482  0.73524789  0.99560511     0.06900
C2543       C  0.74318214  0.73517959  0.00511427    -0.03100
C2544       C  0.73376329  0.74596428  0.00526321    -0.07500
C2545       C  0.73476582  0.75683183  0.99595267     0.06000
C2546       C  0.74570957  0.75699681  0.98656537    -0.02500
Br2547     Br  0.74887106  0.77200535  0.97430518    -0.02200
H2548       H  0.76357878  0.74664460  0.97924982     0.09900
H2549       H  0.72531417  0.74561295  0.01240919     0.07900
Br2550     Br  0.73972376  0.72023618  0.01738039    -0.02700
C2551       C  0.15026459  0.16019806  0.55048876    -0.09300
C2552       C  0.16436562  0.16252417  0.54919780     0.06900
C2553       C  0.17302715  0.15942597  0.56032883    -0.03100
C2554       C  0.16741884  0.15466924  0.57259808    -0.07500
C2555       C  0.15325715  0.15283566  0.57402899     0.06000
C2556       C  0.14467858  0.15534882  0.56271457    -0.02500
Br2557     Br  0.12546510  0.15133537  0.56287466    -0.02200
H2558       H  0.14350921  0.16223709  0.54195919     0.09900
H2559       H  0.17416883  0.15239119  0.58107694     0.07900
Br2560     Br  0.19260289  0.16043161  0.55916272    -0.02700
C2561       C  0.14429595  0.16060957  0.42115007    -0.09300
C2562       C  0.15398231  0.15692405  0.41123094     0.06900
C2563       C  0.16798117  0.15909747  0.41393025    -0.03100
C2564       C  0.17202886  0.16452946  0.42651559    -0.07500
C2565       C  0.16236587  0.16779739  0.43660319     0.06000
C2566       C  0.14834767  0.16596878  0.43375929    -0.02500
Br2567     Br  0.13420945  0.17136135  0.44625418    -0.02200
H2568       H  0.13349565  0.15917923  0.41914740     0.09900
H2569       H  0.18282024  0.16607895  0.42848269     0.07900
Br2570     Br  0.18199110  0.15567721  0.40061804    -0.02700
C2571       C  0.33231337  0.31939579  0.57372620    -0.09300
C2572       C  0.33270289  0.33363131  0.57556664     0.06900
C2573       C  0.32771372  0.34220284  0.56507692    -0.03100
C2574       C  0.32265215  0.33646882  0.55298941    -0.07500
C2575       C  0.32217522  0.32224404  0.55118891     0.06000
C2576       C  0.32696749  0.31365679  0.56174847    -0.02500
Br2577     Br  0.32729854  0.29410063  0.56006892    -0.02200
H2578       H  0.33617651  0.31269916  0.58166104     0.09900
H2579       H  0.31904410  0.34317153  0.54494005     0.07900
Br2580     Br  0.32837939  0.36178971  0.56618818    -0.02700
C2581       C  0.31885143  0.33256406  0.41516458    -0.09300
C2582       C  0.33301282  0.33460285  0.41405821     0.06900
C2583       C  0.34142738  0.33117160  0.42528278    -0.03100
C2584       C  0.33560824  0.32577635  0.43721534    -0.07500
C2585       C  0.32144644  0.32359129  0.43828508     0.06000
C2586       C  0.31303294  0.32709447  0.42706073    -0.02500
Br2587     Br  0.29346181  0.32576012  0.42756796    -0.02200
H2588       H  0.31223285  0.33527695  0.40670627     0.09900
H2589       H  0.34222167  0.32330990  0.44575084     0.07900
Br2590     Br  0.36075994  0.33457466  0.42544325    -0.02700
C2591       C  0.25122550  0.24595842  0.50357791    -0.09300
C2592       C  0.24930994  0.25751750  0.49527550     0.06900
C2593       C  0.23744986  0.25841131  0.48711648    -0.03100
C2594       C  0.22798988  0.24767193  0.48710273    -0.07500
C2595       C  0.23000514  0.23603847  0.49527345     0.06000
C2596       C  0.24177211  0.23522801  0.50357403    -0.02500
Br2597     Br  0.24614906  0.21926914  0.51416238    -0.02200
H2598       H  0.26035615  0.24506549  0.50978943     0.09900
H2599       H  0.21888954  0.24850894  0.48083712     0.07900
Br2600     Br  0.23313838  0.27439043  0.47654953    -0.02700
C2601       C  0.92736132  0.31168133  0.16192812    -0.09300
C2602       C  0.93676461  0.32081581  0.16773073     0.06900
C2603       C  0.93348867  0.33483670  0.16834573    -0.03100
C2604       C  0.92106757  0.33950377  0.16302380    -0.07500
C2605       C  0.91179443  0.33045817  0.15684494     0.06000
C2606       C  0.91500452  0.31637214  0.15639610    -0.02500
Br2607     Br  0.90272689  0.30292475  0.14907379    -0.02200
H2608       H  0.92972672  0.30086145  0.16153099     0.09900
H2609       H  0.91873864  0.35032254  0.16355291     0.07900
Br2610     Br  0.94524226  0.34799313  0.17694369    -0.02700
C2611       C  0.06572340  0.15597704  0.34084497    -0.09300
C2612       C  0.07569940  0.15155703  0.33153006     0.06900
C2613       C  0.07302640  0.15246797  0.31739152    -0.03100
C2614       C  0.06048251  0.15760929  0.31287520    -0.07500
C2615       C  0.05042244  0.16177617  0.32220698     0.06000
C2616       C  0.05315573  0.16102416  0.33633073    -0.02500
Br2617     Br  0.04060198  0.16754976  0.34993219    -0.02200
H2618       H  0.06769189  0.15546527  0.35173524     0.09900
H2619       H  0.05853752  0.15826116  0.30198763     0.07900
Br2620     Br  0.08628986  0.14773750  0.30372835    -0.02700
C2621       C  0.93701993  0.15808742  0.33521860    -0.09300
C2622       C  0.93815981  0.15881966  0.32093611     0.06900
C2623       C  0.92697671  0.15479585  0.31277153    -0.03100
C2624       C  0.91486743  0.15044173  0.31897504    -0.07500
C2625       C  0.91361167  0.15002791  0.33325908     0.06000
C2626       C  0.92490259  0.15375280  0.34142315    -0.02500
Br2627     Br  0.92486273  0.15219200  0.36099220    -0.02200
H2628       H  0.94559483  0.16094625  0.34160953     0.09900
H2629       H  0.90636185  0.14737632  0.31258474     0.07900
Br2630     Br  0.92785544  0.15402963  0.29317648    -0.02700
C2631       C  0.00435004  0.23736008  0.25245921    -0.09300
C2632       C  0.99405618  0.22742794  0.25114606     0.06900
C2633       C  0.98443101  0.22876126  0.24047551    -0.03100
C2634       C  0.98510462  0.23998242  0.23163795    -0.07500
C2635       C  0.99534865  0.24996016  0.23298190     0.06000
C2636       C  0.00509322  0.24853414  0.24355106    -0.02500
Br2637     Br  0.01912025  0.26178921  0.24713564    -0.02200
H2638       H  0.01175510  0.23659140  0.26065712     0.09900
H2639       H  0.97770162  0.24073483  0.22343823     0.07900
Br2640     Br  0.97078946  0.21519619  0.23657495    -0.02700
C2641       C  0.32467486  0.93759323  0.14954039    -0.09300
C2642       C  0.32278935  0.93866688  0.16371212     0.06900
C2643       C  0.32621452  0.92744657  0.17211940    -0.03100
C2644       C  0.33140219  0.91544971  0.16625248    -0.07500
C2645       C  0.33305948  0.91429252  0.15203797     0.06000
C2646       C  0.32966588  0.92554626  0.14365680    -0.02500
Br2647     Br  0.33253017  0.92552424  0.12424956    -0.02200
H2648       H  0.32222462  0.94618528  0.14298711     0.09900
H2649       H  0.33412954  0.90696103  0.17282979     0.07900
Br2650     Br  0.32491765  0.92820610  0.19168726    -0.02700
C2651       C  0.17151017  0.07353401  0.33400848    -0.09300
C2652       C  0.15725474  0.07397480  0.33564842     0.06900
C2653       C  0.14943873  0.06227178  0.33257283    -0.03100
C2654       C  0.15591774  0.05050158  0.32783421    -0.07500
C2655       C  0.17014589  0.05005520  0.32605208     0.06000
C2656       C  0.17800171  0.06173353  0.32918325    -0.02500
Br2657     Br  0.19758655  0.06199886  0.32796077    -0.02200
H2658       H  0.17763083  0.08243258  0.33646197     0.09900
H2659       H  0.14974230  0.04159985  0.32553934     0.07900
Br2660     Br  0.13006173  0.06121613  0.33556449    -0.02700
C2661       C  0.16148629  0.92838820  0.31734135    -0.09300
C2662       C  0.16453554  0.93908724  0.32639927     0.06900
C2663       C  0.16143763  0.93751486  0.34041945    -0.03100
C2664       C  0.15515314  0.92552180  0.34499456    -0.07500
C2665       C  0.15186611  0.91497019  0.33586992     0.06000
C2666       C  0.15522459  0.91639911  0.32194101    -0.02500
Br2667     Br  0.15256152  0.90197083  0.30891940    -0.02200
H2668       H  0.16396222  0.92935245  0.30659560     0.09900
H2669       H  0.15288592  0.92439089  0.35577529     0.07900
Br2670     Br  0.16645345  0.95072444  0.35405395    -0.02700
C2671       C  0.24630999  0.00108116  0.25638823    -0.09300
C2672       C  0.23521295  0.99207694  0.25506442     0.06900
C2673       C  0.23430996  0.98377100  0.24331747    -0.03100
C2674       C  0.24439916  0.98463073  0.23321437    -0.07500
C2675       C  0.25542513  0.99375182  0.23446275     0.06000
C2676       C  0.25641158  0.00192443  0.24631355    -0.02500
Br2677     Br  0.27170098  0.01368019  0.24996555    -0.02200
H2678       H  0.24724885  0.00738174  0.26544313     0.09900
H2679       H  0.24342570  0.97835850  0.22414705     0.07900
Br2680     Br  0.21905643  0.97192146  0.23984724    -0.02700
C2681       C  0.34322363  0.06593091  0.15845629    -0.09300
C2682       C  0.33391774  0.07590021  0.15394634     0.06900
C2683       C  0.31977134  0.07347878  0.15550590    -0.03100
C2684       C  0.31524665  0.06120255  0.16134275    -0.07500
C2685       C  0.32457153  0.05111917  0.16553145     0.06000
C2686       C  0.33869681  0.05361619  0.16414043    -0.02500
Br2687     Br  0.35232031  0.04102731  0.17060232    -0.02200
H2688       H  0.35411226  0.06769700  0.15749959     0.09900
H2689       H  0.30437033  0.05946508  0.16249155     0.07900
Br2690     Br  0.30614858  0.08678490  0.15070823    -0.02700
C2691       C  0.55153822  0.15570703  0.16024161    -0.09300
C2692       C  0.55034172  0.16988468  0.16218503     0.06900
C2693       C  0.56177482  0.17829093  0.15949124    -0.03100
C2694       C  0.57403985  0.17242774  0.15503560    -0.07500
C2695       C  0.57527815  0.15824339  0.15327876     0.06000
C2696       C  0.56384161  0.14984128  0.15588546    -0.02500
Br2697     Br  0.56397585  0.13045921  0.15276613    -0.02200
H2698       H  0.54285588  0.14911522  0.16217174     0.09900
H2699       H  0.58268460  0.17901311  0.15291262     0.07900
Br2700     Br  0.56115785  0.19788164  0.16069680    -0.02700
C2701       C  0.42607655  0.17561461  0.16449365    -0.09300
C2702       C  0.43700629  0.16642457  0.16615033     0.06900
C2703       C  0.43482699  0.15241858  0.16344129    -0.03100
C2704       C  0.42204645  0.14796225  0.15880909    -0.07500
C2705       C  0.41125851  0.15721294  0.15676608     0.06000
C2706       C  0.41329869  0.17114669  0.15984022    -0.02500
Br2707     Br  0.39880710  0.18435457  0.15878957    -0.02200
H2708       H  0.42749158  0.18636256  0.16676938     0.09900
H2709       H  0.42056242  0.13719123  0.15669383     0.07900
Br2710     Br  0.44848713  0.13871413  0.16677890    -0.02700
C2711       C  0.54877016  0.32762836  0.33679943    -0.09300
C2712       C  0.54803219  0.32466131  0.32277898     0.06900
C2713       C  0.55967256  0.32682801  0.31451789    -0.03100
C2714       C  0.57163119  0.33204301  0.32033017    -0.07500
C2715       C  0.57235829  0.33498219  0.33432804     0.06000
C2716       C  0.56082124  0.33264139  0.34263815    -0.02500
Br2717     Br  0.56055935  0.33699218  0.36176884    -0.02200
H2718       H  0.53990803  0.32606687  0.34325229     0.09900
H2719       H  0.58042553  0.33387361  0.31385301     0.07900
Br2720     Br  0.55973536  0.32393197  0.29510583    -0.02700
C2721       C  0.42053240  0.34545499  0.32847005    -0.09300
C2722       C  0.41037661  0.33582581  0.33159821     0.06900
C2723       C  0.41269482  0.32193020  0.32858006    -0.03100
C2724       C  0.42514996  0.31788990  0.32280423    -0.07500
C2725       C  0.43546512  0.32748747  0.31997944     0.06000
C2726       C  0.43298641  0.34144189  0.32273536    -0.02500
Br2727     Br  0.44565982  0.35568595  0.31805145    -0.02200
H2728       H  0.41878278  0.35619766  0.33053285     0.09900
H2729       H  0.42680279  0.30716682  0.32058486     0.07900
Br2730     Br  0.39893244  0.30819488  0.33121875    -0.02700
C2731       C  0.50222569  0.25850791  0.24208036    -0.09300
C2732       C  0.49304189  0.25702097  0.25298835     0.06900
C2733       C  0.48464019  0.24534658  0.25358769    -0.03100
C2734       C  0.48521532  0.23564398  0.24312830    -0.07500
C2735       C  0.49421964  0.23721015  0.23206146     0.06000
C2736       C  0.50284726  0.24878998  0.23161430    -0.02500
Br2737     Br  0.51489812  0.25261576  0.21659585    -0.02200
H2738       H  0.50871072  0.26746793  0.24151512     0.09900
H2739       H  0.47874516  0.22668456  0.24378299     0.07900
Br2740     Br  0.47298795  0.24154519  0.26891093    -0.02700
C2741       C  0.07121605  0.33287731  0.16540202    -0.09300
C2742       C  0.07154415  0.33363184  0.15105691     0.06900
C2743       C  0.06011982  0.32898324  0.14355230    -0.03100
C2744       C  0.04870136  0.32384094  0.15045839    -0.07500
C2745       C  0.04842180  0.32309749  0.16477780     0.06000
C2746       C  0.05982719  0.32765849  0.17227846    -0.02500
Br2747     Br  0.06001733  0.32807107  0.19189298    -0.02200
H2748       H  0.07984955  0.33646929  0.17134088     0.09900
H2749       H  0.03992521  0.32046526  0.14459506     0.07900
Br2750     Br  0.05889109  0.33032997  0.12401340    -0.02700
C2751       C  0.15586374  0.56286616  0.14320138    -0.09300
C2752       C  0.15154422  0.57249693  0.15293928     0.06900
C2753       C  0.15332309  0.56952693  0.16694774    -0.03100
C2754       C  0.15929354  0.55712794  0.17090619    -0.07500
C2755       C  0.16349343  0.54746843  0.16115992     0.06000
C2756       C  0.16174336  0.55043935  0.14716234    -0.02500
Br2757     Br  0.16807840  0.53849081  0.13293761    -0.02200
H2758       H  0.15469543  0.56502967  0.13240208     0.09900
H2759       H  0.16068430  0.55502870  0.18169359     0.07900
Br2760     Br  0.14883785  0.58229301  0.18114972    -0.02700
C2761       C  0.17316709  0.42391549  0.16198490    -0.09300
C2762       C  0.16452737  0.43526230  0.16366006     0.06900
C2763       C  0.15037925  0.43370893  0.16123958    -0.03100
C2764       C  0.14528082  0.42116401  0.15666011    -0.07500
C2765       C  0.15399839  0.40997443  0.15448928     0.06000
C2766       C  0.16804284  0.41134533  0.15747590    -0.02500
Br2767     Br  0.18056777  0.39624937  0.15652491    -0.02200
H2768       H  0.18399629  0.42484492  0.16410244     0.09900
H2769       H  0.13443074  0.42019460  0.15466737     0.07900
Br2770     Br  0.13730057  0.44789335  0.16491634    -0.02700
C2771       C  0.31227165  0.56121686  0.32103905    -0.09300
C2772       C  0.32233749  0.55175485  0.31713737     0.06900
C2773       C  0.33620932  0.55544170  0.31827238    -0.03100
C2774       C  0.33978411  0.56816866  0.32372476    -0.07500
C2775       C  0.32975622  0.57750545  0.32807403     0.06000
C2776       C  0.31582863  0.57399170  0.32646141    -0.02500
Br2777     Br  0.30116080  0.58640546  0.33050458    -0.02200
H2778       H  0.30156161  0.55863285  0.31991858     0.09900
H2779       H  0.35051495  0.57071832  0.32464742     0.07900
Br2780     Br  0.35069184  0.54398425  0.31162410    -0.02700
C2781       C  0.32442363  0.43786876  0.33371508    -0.09300
C2782       C  0.32386057  0.43854229  0.31939246     0.06900
C2783       C  0.32741390  0.42689404  0.31167860    -0.03100
C2784       C  0.33129337  0.41485938  0.31835273    -0.07500
C2785       C  0.33175475  0.41413095  0.33268198     0.06000
C2786       C  0.32832223  0.42581856  0.34039564    -0.02500
Br2787     Br  0.32991035  0.42640891  0.35993665    -0.02200
H2788       H  0.32186819  0.44679016  0.33975394     0.09900
H2789       H  0.33416083  0.40604851  0.31228679     0.07900
Br2790     Br  0.32837688  0.42708132  0.29206939    -0.02700
C2791       C  0.24436776  0.50173675  0.25140124    -0.09300
C2792       C  0.25570993  0.49326396  0.24902790     0.06900
C2793       C  0.25591567  0.48485780  0.23733550    -0.03100
C2794       C  0.24477570  0.48488002  0.22841312    -0.07500
C2795       C  0.23341354  0.49330644  0.23079902     0.06000
C2796       C  0.23322404  0.50177365  0.24245280    -0.02500
Br2797     Br  0.21770234  0.51279539  0.24725246    -0.02200
H2798       H  0.24403385  0.50813140  0.26043079     0.09900
H2799       H  0.24513822  0.47850571  0.21937056     0.07900
Br2800     Br  0.27147936  0.47396648  0.23237795    -0.02700
C2801       C  0.34402943  0.15992702  0.06432800    -0.09300
C2802       C  0.33454322  0.15663999  0.07457361     0.06900
C2803       C  0.32052294  0.15889998  0.07210931    -0.03100
C2804       C  0.31623329  0.16409684  0.05947387    -0.07500
C2805       C  0.32568050  0.16703862  0.04905865     0.06000
C2806       C  0.33974450  0.16502511  0.05164437    -0.02500
Br2807     Br  0.35367986  0.16989418  0.03871957    -0.02200
H2808       H  0.35485195  0.15843659  0.06617060     0.09900
H2809       H  0.30541766  0.16577180  0.05775632     0.07900
Br2810     Br  0.30687339  0.15594589  0.08589231    -0.02700
C2811       C  0.33827785  0.16639333  0.93409095    -0.09300
C2812       C  0.32407022  0.16613258  0.93605956     0.06900
C2813       C  0.31570158  0.16046220  0.92579079    -0.03100
C2814       C  0.32161674  0.15516334  0.91388380    -0.07500
C2815       C  0.33584787  0.15540904  0.91187123     0.06000
C2816       C  0.34421345  0.16116256  0.92215627    -0.02500
Br2817     Br  0.36381938  0.16119028  0.92125063    -0.02200
H2818       H  0.34483078  0.17058786  0.94196510     0.09900
H2819       H  0.31502859  0.15069702  0.90619323     0.07900
Br2820     Br  0.29628487  0.15857580  0.92790877    -0.02700
C2821       C  0.16761340  0.33174149  0.07259125    -0.09300
C2822       C  0.15345074  0.33411346  0.07270552     0.06900
C2823       C  0.14592710  0.33213200  0.06055010    -0.03100
C2824       C  0.15260900  0.32777551  0.04868373    -0.07500
C2825       C  0.16674605  0.32529831  0.04860761     0.06000
C2826       C  0.17428446  0.32735760  0.06072967    -0.02500
Br2827     Br  0.19380823  0.32546404  0.06153462    -0.02200
H2828       H  0.17356578  0.33339066  0.08178053     0.09900
H2829       H  0.14670914  0.32637072  0.03942165     0.07900
Br2830     Br  0.12679497  0.33627038  0.05904126    -0.02700
C2831       C  0.16114342  0.31528835  0.92764544    -0.09300
C2832       C  0.16701538  0.32514233  0.93625631     0.06900
C2833       C  0.16706095  0.33893548  0.93211737    -0.03100
C2834       C  0.16093432  0.34269229  0.91975527    -0.07500
C2835       C  0.15475598  0.33290774  0.91123173     0.06000
C2836       C  0.15506614  0.31901444  0.91522228    -0.02500
Br2837     Br  0.14843862  0.30448117  0.90382253    -0.02200
H2838       H  0.16129431  0.30460787  0.93059879     0.09900
H2839       H  0.16102034  0.35336816  0.91680295     0.07900
Br2840     Br  0.17627741  0.35290818  0.94235549    -0.02700
C2841       C  0.24436168  0.25506266  0.00211385    -0.09300
C2842       C  0.23343410  0.25398797  0.99288497     0.06900
C2843       C  0.23281180  0.24256723  0.98409592    -0.03100
C2844       C  0.24319575  0.23272294  0.98446346    -0.07500
C2845       C  0.25420156  0.23385384  0.99361485     0.06000
C2846       C  0.25471563  0.24520663  0.00253050    -0.02500
Br2847     Br  0.26970874  0.24857812  0.01474720    -0.02200
H2848       H  0.24505045  0.26384807  0.00885161     0.09900
H2849       H  0.24251941  0.22395465  0.97770284     0.07900
Br2850     Br  0.21759981  0.23922867  0.97214760    -0.02700
C2851       C  0.91553946  0.82090673  0.65762786    -0.09300
C2852       C  0.91501820  0.83507348  0.65544174     0.06900
C2853       C  0.92651884  0.84312341  0.65869779    -0.03100
C2854       C  0.93842810  0.83684183  0.66354296    -0.07500
C2855       C  0.93899724  0.82264232  0.66561947     0.06000
C2856       C  0.92729244  0.81466918  0.66285262    -0.02500
Br2857     Br  0.92685874  0.79516437  0.66509949    -0.02200
H2858       H  0.90673803  0.81463328  0.65521125     0.09900
H2859       H  0.94729890  0.84309885  0.66572618     0.07900
Br2860     Br  0.92691519  0.86256233  0.65599323    -0.02700
C2861       C  0.84345082  0.92266315  0.65733874    -0.09300
C2862       C  0.83393194  0.91242270  0.65405945     0.06900
C2863       C  0.81993427  0.91481753  0.65661469    -0.03100
C2864       C  0.81577670  0.92722641  0.66244087    -0.07500
C2865       C  0.82530765  0.93748848  0.66558251     0.06000
C2866       C  0.83927456  0.93512369  0.66296311    -0.02500
Br2867     Br  0.85322126  0.94809466  0.66769169    -0.02200
H2868       H  0.85424272  0.92096263  0.65553082     0.09900
H2869       H  0.80501771  0.92890287  0.66445785     0.07900
Br2870     Br  0.80611196  0.90131543  0.65323057    -0.02700
C2871       C  0.81745449  0.82163829  0.56174338    -0.09300
C2872       C  0.82652239  0.81974089  0.55076829     0.06900
C2873       C  0.84051848  0.82278257  0.55268225    -0.03100
C2874       C  0.84502471  0.82806600  0.56518257    -0.07500
C2875       C  0.83586074  0.83042123  0.57595132     0.06000
C2876       C  0.82198999  0.82691334  0.57424524    -0.02500
Br2877     Br  0.80897321  0.82822994  0.58886773    -0.02200
H2878       H  0.80673491  0.81912360  0.56056800     0.09900
H2879       H  0.85576379  0.83046234  0.56645545     0.07900
Br2880     Br  0.85421477  0.81912822  0.53910570    -0.02700
C2881       C  0.83911293  0.82744293  0.43774055    -0.09300
C2882       C  0.82514849  0.82415669  0.43845349     0.06900
C2883       C  0.81672584  0.82718846  0.42711272    -0.03100
C2884       C  0.82243599  0.83284399  0.41525394    -0.07500
C2885       C  0.83647142  0.83574636  0.41440585     0.06000
C2886       C  0.84478800  0.83325588  0.42595058    -0.02500
Br2887     Br  0.86365593  0.83861807  0.42681660    -0.02200
H2888       H  0.84568564  0.82551948  0.44643945     0.09900
H2889       H  0.81583609  0.83498299  0.40662695     0.07900
Br2890     Br  0.79722569  0.82501176  0.42747011    -0.02700
C2891       C  0.74445860  0.73267145  0.50114770    -0.09300
C2892       C  0.73377191  0.73454189  0.49175003     0.06900
C2893       C  0.73422500  0.74582840  0.48277645    -0.03100
C2894       C  0.74523573  0.75495955  0.48336411    -0.07500
C2895       C  0.75589834  0.75312850  0.49282053     0.06000
C2896       C  0.75551895  0.74171743  0.50165883    -0.02500
Br2897     Br  0.77025807  0.73717510  0.51381073    -0.02200
H2898       H  0.74438865  0.72390216  0.50791878     0.09900
H2899       H  0.74531362  0.76371174  0.47657467     0.07900
Br2900     Br  0.71971547  0.74988920  0.47019095    -0.02700
C2901       C  0.65860601  0.64453866  0.42160320    -0.09300
C2902       C  0.65538004  0.65395134  0.41125394     0.06900
C2903       C  0.65790621  0.66797248  0.41349965    -0.03100
C2904       C  0.66324220  0.67232672  0.42603384    -0.07500
C2905       C  0.66616339  0.66295556  0.43652724     0.06000
C2906       C  0.66392257  0.64888517  0.43415446    -0.02500
Br2907     Br  0.66877768  0.63496010  0.44713036    -0.02200
H2908       H  0.65691431  0.63372200  0.41994902     0.09900
H2909       H  0.66509414  0.68313226  0.42758726     0.07900
Br2910     Br  0.65526651  0.68156186  0.39956896    -0.02700
C2911       C  0.56397985  0.65964790  0.34330204    -0.09300
C2912       C  0.57401037  0.65662992  0.33349001     0.06900
C2913       C  0.57101001  0.65878248  0.31955224    -0.03100
C2914       C  0.55807846  0.66353231  0.31569486    -0.07500
C2915       C  0.54791623  0.66624810  0.32547607     0.06000
C2916       C  0.55103747  0.66440878  0.33944681    -0.02500
Br2917     Br  0.53855960  0.66913929  0.35382511    -0.02200
H2918       H  0.56619244  0.65823139  0.35406321     0.09900
H2919       H  0.55595810  0.66510891  0.30493711     0.07900
Br2920     Br  0.58437284  0.65641534  0.30537267    -0.02700
C2921       C  0.67257896  0.56219130  0.32265115    -0.09300
C2922       C  0.66341068  0.55179965  0.31899315     0.06900
C2923       C  0.64924116  0.55427683  0.31990928    -0.03100
C2924       C  0.64451287  0.56681634  0.32492927    -0.07500
C2925       C  0.65369401  0.57700302  0.32917698     0.06000
C2926       C  0.66787005  0.57469639  0.32774224    -0.02500
Br2927     Br  0.68129976  0.58842778  0.33177393    -0.02200
H2928       H  0.68349133  0.56050285  0.32172518     0.09900
H2929       H  0.63359571  0.56852176  0.32572890     0.07900
Br2930     Br  0.63591225  0.54125071  0.31375790    -0.02700
C2931       C  0.91775980  0.65022508  0.82125881    -0.09300
C2932       C  0.91800143  0.64860982  0.83551676     0.06900
C2933       C  0.92999642  0.65198046  0.84275729    -0.03100
C2934       C  0.94150825  0.65663319  0.83566376    -0.07500
C2935       C  0.94123776  0.65836148  0.82141312     0.06000
C2936       C  0.92915221  0.65522670  0.81420072    -0.02500
Br2937     Br  0.92774474  0.65685478  0.79469809    -0.02200
H2938       H  0.90859353  0.64768833  0.81557571     0.09900
H2939       H  0.95071094  0.65902814  0.84134992     0.07900
Br2940     Br  0.93154646  0.64979044  0.86219123    -0.02700
C2941       C  0.81738135  0.66725508  0.92683370    -0.09300
C2942       C  0.82675552  0.67047138  0.93722148     0.06900
C2943       C  0.84082041  0.66826449  0.93484784    -0.03100
C2944       C  0.84518412  0.66281535  0.92236895    -0.07500
C2945       C  0.83579414  0.65927837  0.91210345     0.06000
C2946       C  0.82173324  0.66162502  0.91441102    -0.02500
Br2947     Br  0.80799183  0.65806214  0.90085684    -0.02200
H2948       H  0.80655911  0.66895288  0.92845233     0.09900
H2949       H  0.85601259  0.66114306  0.92077555     0.07900
Br2950     Br  0.85469759  0.67308854  0.94785743    -0.02700
C2951       C  0.82425881  0.56240816  0.81700304    -0.09300
C2952       C  0.82035308  0.55185031  0.82592995     0.06900
C2953       C  0.82166538  0.55392090  0.84016822    -0.03100
C2954       C  0.82739587  0.56607252  0.84511589    -0.07500
C2955       C  0.83189058  0.57631673  0.83613699     0.06000
C2956       C  0.82996262  0.57455299  0.82196996    -0.02500
Br2957     Br  0.83412689  0.58869282  0.80900143    -0.02200
H2958       H  0.82304814  0.56115094  0.80607235     0.09900
H2959       H  0.82851632  0.56744793  0.85604621     0.07900
Br2960     Br  0.81507287  0.54103801  0.85344102    -0.02700
C2961       C  0.81866084  0.43683508  0.83880860    -0.09300
C2962       C  0.81882399  0.43917303  0.82467206     0.06900
C2963       C  0.82474912  0.42928048  0.81601821    -0.03100
C2964       C  0.83050985  0.41743224  0.82161232    -0.07500
C2965       C  0.83046773  0.41508757  0.83578271     0.06000
C2966       C  0.82432864  0.42494260  0.84442752    -0.02500
Br2967     Br  0.82424851  0.42361577  0.86401538    -0.02200
H2968       H  0.81423657  0.44441933  0.84556055     0.09900
H2969       H  0.83516632  0.41004534  0.81480810     0.07900
Br2970     Br  0.82639058  0.43181467  0.79662415    -0.02700
C2971       C  0.74710240  0.48688506  0.72955299    -0.09300
C2972       C  0.73564223  0.49532757  0.73138631     0.06900
C2973       C  0.73513614  0.50411293  0.74280480    -0.03100
C2974       C  0.74606032  0.50445072  0.75201424    -0.07500
C2975       C  0.75751710  0.49601304  0.75020017     0.06000
C2976       C  0.75803518  0.48721676  0.73878511    -0.02500
Br2977     Br  0.77374697  0.47615238  0.73475167    -0.02200
H2978       H  0.74767388  0.48020006  0.72074739     0.09900
H2979       H  0.74541556  0.51106001  0.76087086     0.07900
Br2980     Br  0.71937084  0.51502023  0.74704313    -0.02700
C2981       C  0.65362645  0.41389019  0.66991937    -0.09300
C2982       C  0.65350514  0.41212546  0.65565917     0.06900
C2983       C  0.65825918  0.42289707  0.64726820    -0.03100
C2984       C  0.66297470  0.43501771  0.65319414    -0.07500
C2985       C  0.66326868  0.43669836  0.66742134     0.06000
C2986       C  0.65855500  0.42597916  0.67583734    -0.02500
Br2987     Br  0.65783373  0.42756331  0.69537436    -0.02200
H2988       H  0.64994557  0.40578821  0.67651209     0.09900
H2989       H  0.66648597  0.44320402  0.64661033     0.07900
Br2990     Br  0.65778386  0.42228971  0.62765339    -0.02700
C2991       C  0.56293062  0.30913829  0.66006725    -0.09300
C2992       C  0.55194933  0.31800104  0.66272509     0.06900
C2993       C  0.55388395  0.33222858  0.66116508    -0.03100
C2994       C  0.56648223  0.33724888  0.65670100    -0.07500
C2995       C  0.57735396  0.32839119  0.65370536     0.06000
C2996       C  0.57554619  0.31418643  0.65554615    -0.02500
Br2997     Br  0.59009957  0.30126618  0.65295686    -0.02200
H2998       H  0.56167295  0.29821766  0.66144764     0.09900
H2999       H  0.56776358  0.34818813  0.65550330     0.07900
Br3000     Br  0.54020298  0.34550561  0.66589599    -0.02700
C3001       C  0.66016064  0.34462278  0.56462347    -0.09300
C3002       C  0.65719629  0.33485736  0.57472962     0.06900
C3003       C  0.65993344  0.32095794  0.57207288    -0.03100
C3004       C  0.66501280  0.31702720  0.55932019    -0.07500
C3005       C  0.66756409  0.32671644  0.54903133     0.06000
C3006       C  0.66532175  0.34069355  0.55186397    -0.02500
Br3007     Br  0.67000556  0.35495891  0.53921439    -0.02200
H3008       H  0.65838494  0.35536890  0.56663082     0.09900
H3009       H  0.66691824  0.30628590  0.55742904     0.07900
Br3010     Br  0.65795989  0.30696929  0.58571214    -0.02700
C3011       C  0.64517842  0.91997584  0.82726668    -0.09300
C3012       C  0.65433734  0.90972826  0.83143942     0.06900
C3013       C  0.66849401  0.91194476  0.82979156    -0.03100
C3014       C  0.67321212  0.92444658  0.82464521    -0.07500
C3015       C  0.66407348  0.93492306  0.82100269     0.06000
C3016       C  0.64988111  0.93245731  0.82206881    -0.02500
Br3017     Br  0.63632748  0.94522416  0.81580031    -0.02200
H3018       H  0.63426876  0.91834327  0.82819614     0.09900
H3019       H  0.68412094  0.92602756  0.82362926     0.07900
Br3020     Br  0.68185849  0.89804674  0.83351175    -0.02700
C3021       C  0.65231416  0.81902077  0.91619699    -0.09300
C3022       C  0.65169842  0.83334099  0.91515054     0.06900
C3023       C  0.65576063  0.84137282  0.92640878    -0.03100
C3024       C  0.66049339  0.83501972  0.93830930    -0.07500
C3025       C  0.66130050  0.82071814  0.93926604     0.06000
C3026       C  0.65707266  0.81267639  0.92810020    -0.02500
Br3027     Br  0.65652782  0.79306671  0.92887573    -0.02200
H3028       H  0.64901739  0.81271330  0.90771898     0.09900
H3029       H  0.66352893  0.84130721  0.94689954     0.07900
Br3030     Br  0.65405704  0.86092979  0.92667612    -0.02700
C3031       C  0.54881403  0.83509109  0.82797477    -0.09300
C3032       C  0.54822123  0.82088250  0.82585001     0.06900
C3033       C  0.55949311  0.81275846  0.82982256    -0.03100
C3034       C  0.57113211  0.81895952  0.83537838    -0.07500
C3035       C  0.57184500  0.83319171  0.83706011     0.06000
C3036       C  0.56045193  0.84126556  0.83351369    -0.02500
Br3037     Br  0.55980337  0.86061041  0.83681847    -0.02200
H3038       H  0.54020621  0.84149031  0.82521823     0.09900
H3039       H  0.57973294  0.81262228  0.83830915     0.07900
Br3040     Br  0.55942154  0.79315156  0.82885592    -0.02700
C3041       C  0.42668068  0.81417627  0.82401470    -0.09300
C3042       C  0.43710876  0.82318516  0.82003211     0.06900
C3043       C  0.43505214  0.83739128  0.82148232    -0.03100
C3044       C  0.42301520  0.84226828  0.82741518    -0.07500
C3045       C  0.41278010  0.83326008  0.83187575     0.06000
C3046       C  0.41457019  0.81906554  0.82985830    -0.02500
Br3047     Br  0.40059797  0.80588296  0.83390436    -0.02200
H3048       H  0.42800570  0.80325582  0.82270167     0.09900
H3049       H  0.42169226  0.85320032  0.82860967     0.07900
Br3050     Br  0.44776864  0.85072799  0.81469309    -0.02700
C3051       C  0.48558244  0.74497801  0.73033940    -0.09300
C3052       C  0.49477810  0.73397199  0.73091191     0.06900
C3053       C  0.50363707  0.73282614  0.74226287    -0.03100
C3054       C  0.50324400  0.74267857  0.75262564    -0.07500
C3055       C  0.49404472  0.75368222  0.75204768     0.06000
C3056       C  0.48521711  0.75484618  0.74067927    -0.02500
Br3057     Br  0.47326737  0.77020350  0.73798500    -0.02200
H3058       H  0.47887095  0.74611788  0.72160735     0.09900
H3059       H  0.50997062  0.74156339  0.76134895     0.07900
Br3060     Br  0.51575723  0.71758231  0.74484410    -0.02700
C3061       C  0.41657812  0.66843558  0.64891265    -0.09300
C3062       C  0.41589960  0.65406449  0.64883481     0.06900
C3063       C  0.42758313  0.64653755  0.65279590    -0.03100
C3064       C  0.43941503  0.65340077  0.65698564    -0.07500
C3065       C  0.43996211  0.66773967  0.65737684     0.06000
C3066       C  0.42842908  0.67528651  0.65313574    -0.02500
Br3067     Br  0.42854580  0.69488424  0.65198041    -0.02200
H3068       H  0.40781327  0.67440663  0.64571247     0.09900
H3069       H  0.44825518  0.64745614  0.66003168     0.07900
Br3070     Br  0.42855747  0.62695392  0.65182231    -0.02700
C3071       C  0.31949411  0.66857406  0.56249623    -0.09300
C3072       C  0.31620373  0.65884363  0.55246317     0.06900
C3073       C  0.31875982  0.64489438  0.55514125    -0.03100
C3074       C  0.32492866  0.64101531  0.56744127    -0.07500
C3075       C  0.32868873  0.65078944  0.57725387     0.06000
C3076       C  0.32570190  0.66468585  0.57479257    -0.02500
Br3077     Br  0.32908824  0.67871386  0.58808080    -0.02200
H3078       H  0.31741964  0.67930996  0.56069119     0.09900
H3079       H  0.32693802  0.63027197  0.56927500     0.07900
Br3080     Br  0.31337288  0.63056134  0.54285956    -0.02700
C3081       C  0.34414896  0.56318233  0.66187475    -0.09300
C3082       C  0.33546832  0.57357999  0.65707967     0.06900
C3083       C  0.32116136  0.57173633  0.65807822    -0.03100
C3084       C  0.31588740  0.55945611  0.66315891    -0.07500
C3085       C  0.32456727  0.54884131  0.66734322     0.06000
C3086       C  0.33883928  0.55089403  0.66697003    -0.02500
Br3087     Br  0.35154987  0.53767177  0.67399592    -0.02200
H3088       H  0.35512960  0.56450763  0.66144523     0.09900
H3089       H  0.30490654  0.55812863  0.66367725     0.07900
Br3090     Br  0.30817108  0.58576314  0.65353069    -0.02700
C3091       C  0.66377078  0.67387463  0.55862230    -0.09300
C3092       C  0.66878755  0.66413799  0.54936314     0.06900
C3093       C  0.66877500  0.65022367  0.55308055    -0.03100
C3094       C  0.66350133  0.64627169  0.56575275    -0.07500
C3095       C  0.65816483  0.65596057  0.57492740     0.06000
C3096       C  0.65846000  0.66993457  0.57129978    -0.02500
Br3097     Br  0.65265671  0.68423283  0.58341933    -0.02200
H3098       H  0.66391356  0.68462929  0.55594504     0.09900
H3099       H  0.66349383  0.63551096  0.56838731     0.07900
Br3100     Br  0.67662285  0.63626961  0.54172805    -0.02700
C3101       C  0.55200237  0.65076725  0.66050317    -0.09300
C3102       C  0.55171136  0.66497653  0.66257043     0.06900
C3103       C  0.56341749  0.67275935  0.65932016    -0.03100
C3104       C  0.57491715  0.66631092  0.65380908    -0.07500
C3105       C  0.57513397  0.65214047  0.65154053     0.06000
C3106       C  0.56356239  0.64429569  0.65512246    -0.02500
Br3107     Br  0.56233632  0.62495330  0.65196237    -0.02200
H3108       H  0.54309553  0.64465589  0.66293513     0.09900
H3109       H  0.58373128  0.67246286  0.65115731     0.07900
Br3110     Br  0.56412177  0.69230301  0.66100778    -0.02700
C3111       C  0.66841485  0.57243497  0.65307114    -0.09300
C3112       C  0.65451514  0.57288892  0.64957723     0.06900
C3113       C  0.64642121  0.56111829  0.65148998    -0.03100
C3114       C  0.65220736  0.54934787  0.65718121    -0.07500
C3115       C  0.66604762  0.54894845  0.66101800     0.06000
C3116       C  0.67423688  0.56064845  0.65874184    -0.02500
Br3117     Br  0.69356167  0.56109493  0.66216092    -0.02200
H3118       H  0.67479015  0.58134862  0.65145421     0.09900
H3119       H  0.64578642  0.54044964  0.65865121     0.07900
Br3120     Br  0.62769773  0.56007616  0.64565774    -0.02700
loop_ 
_geom_bond_atom_site_label_1 
_geom_bond_atom_site_label_2 
_geom_bond_distance 
_geom_bond_site_symmetry_2 
_ccdc_geom_bond_type 
N1            N2   1.322       .  A
N1            C5   1.342       .  A
N1           Cu9   2.068       .  S
N2            C3   1.345       .  A
N2           Cu8   2.076       .  S
C3            C4   1.386       .  A
C3            H6   1.082       .  S
C4            C5   1.383       .  A
C4         C3095   1.480       .  S
C5            H7   1.083       .  S
Cu8          N11   2.076       .  S
Cu9          N19   2.068       .  S
Cu10         N12   2.063       .  S
Cu10         N18   2.063       .  S
N11          N12   1.321       .  A
N11          C15   1.344       .  A
N12          C13   1.344       .  A
C13          C14   1.383       .  A
C13          H16   1.081       .  S
C14          C15   1.386       .  A
C14        C3105   1.479       .  S
C15          H17   1.084       .  S
N18          N19   1.321       .  A
N18          C22   1.343       .  A
N19          C20   1.345       .  A
C20          C21   1.385       .  A
C20          H23   1.082       .  S
C21          C22   1.383       .  A
C21        C3112   1.476       .  S
C22          H24   1.081       .  S
N25          N26   1.321       .  A
N25          C29   1.341       .  A
N25         Cu33   2.060       .  S
N26          C27   1.348       .  A
N26         Cu32   2.087       .  S
C27          C28   1.389       .  A
C27          H30   1.083       .  S
C28          C29   1.382       .  A
C28        C3082   1.482       .  S
C29          H31   1.081       .  S
Cu32         N35   2.088       .  S
Cu33         N43   2.060       .  S
Cu34         N36   2.079       .  S
Cu34         N42   2.078       .  S
N35          N36   1.324       .  A
N35          C39   1.347       .  A
N36          C37   1.345       .  A
C37          C38   1.384       .  A
C37          H40   1.083       .  S
C38          C39   1.388       .  A
C38        C3062   1.485       .  S
C39          H41   1.081       .  S
N42          N43   1.320       .  A
N42          C46   1.346       .  A
N43          C44   1.342       .  A
C44          C45   1.383       .  A
C44          H47   1.083       .  S
C45          C46   1.387       .  A
C45        C3075   1.479       .  S
C46          H48   1.082       .  S
N49          N50   1.322       .  A
N49          C53   1.347       .  A
N49         Cu57   2.082       .  S
N50          C51   1.344       .  A
N50         Cu56   2.072       .  S
C51          C52   1.384       .  A
C51          H54   1.083       .  S
C52          C53   1.387       .  A
C52        C3065   1.481       .  S
C53          H55   1.082       .  S
Cu56         N59   2.071       .  S
Cu57         N67   2.082       .  S
Cu58         N60   2.067       .  S
Cu58         N66   2.068       .  S
N59          N60   1.321       .  A
N59          C63   1.343       .  A
N60          C61   1.345       .  A
C61          C62   1.385       .  A
C61          H64   1.081       .  S
C62          C63   1.384       .  A
C62        C3102   1.479       .  S
C63          H65   1.083       .  S
N66          N67   1.323       .  A
N66          C70   1.343       .  A
N67          C68   1.346       .  A
C68          C69   1.386       .  A
C68          H71   1.083       .  S
C69          C70   1.383       .  A
C69        C3052   1.480       .  S
C70          H72   1.081       .  S
N73          N74   1.320       .  A
N73          C77   1.346       .  A
N73         Cu81   2.071       .  S
N74          C75   1.341       .  A
N74         Cu80   2.060       .  S
C75          C76   1.382       .  A
C75          H78   1.081       .  S
C76          C77   1.386       .  A
C76        C3042   1.477       .  S
C77          H79   1.083       .  S
Cu80         N83   2.060       .  S
Cu81         N91   2.071       .  S
Cu82         N84   2.082       .  S
Cu82         N90   2.083       .  S
N83          N84   1.321       .  A
N83          C87   1.342       .  A
N84          C85   1.346       .  A
C85          C86   1.389       .  A
C85          H88   1.081       .  S
C86          C87   1.383       .  A
C86        C3032   1.483       .  S
C87          H89   1.082       .  S
N90          N91   1.323       .  A
N90          C94   1.346       .  A
N91          C92   1.344       .  A
C92          C93   1.383       .  A
C92          H95   1.080       .  S
C93          C94   1.385       .  A
C93        C3055   1.480       .  S
C94          H96   1.083       .  S
N97          N98   1.322       .  A
N97         C101   1.346       .  A
N97        Cu105   2.079       .  S
N98          C99   1.342       .  A
N98        Cu104   2.064       .  S
C99         C100   1.381       .  A
C99         H102   1.083       .  S
C100        C101   1.386       .  A
C100       C3022   1.477       .  S
C101        H103   1.081       .  S
Cu104       N107   2.064       .  S
Cu105       N115   2.079       .  S
Cu106       N108   2.076       .  S
Cu106       N114   2.076       .  S
N107        N108   1.321       .  A
N107        C111   1.344       .  A
N108        C109   1.345       .  A
C109        C110   1.385       .  A
C109        H112   1.081       .  S
C110        C111   1.382       .  A
C110       C3035   1.477       .  S
C111        H113   1.083       .  S
N114        N115   1.323       .  A
N114        C118   1.345       .  A
N115        C116   1.346       .  A
C116        C117   1.386       .  A
C116        H119   1.081       .  S
C117        C118   1.385       .  A
C117       C3012   1.482       .  S
C118        H120   1.083       .  S
N121        N122   1.323       .  A
N121        C125   1.345       .  A
N121       Cu129   2.071       .  S
N122        C123   1.345       .  A
N122       Cu128   2.082       .  S
C123        C124   1.385       .  A
C123        H126   1.082       .  S
C124        C125   1.383       .  A
C124       C2995   1.479       .  S
C125        H127   1.082       .  S
Cu128       N131   2.082       .  S
Cu129       N139   2.071       .  S
Cu130       N132   2.069       .  S
Cu130       N138   2.069       .  S
N131        N132   1.321       .  A
N131        C135   1.347       .  A
N132        C133   1.343       .  A
C133        C134   1.384       .  A
C133        H136   1.081       .  S
C134        C135   1.388       .  A
C134       C2982   1.484       .  S
C135        H137   1.082       .  S
N138        N139   1.321       .  A
N138        C142   1.344       .  A
N139        C140   1.344       .  A
C140        C141   1.385       .  A
C140        H143   1.082       .  S
C141        C142   1.383       .  A
C141       C3002   1.478       .  S
C142        H144   1.083       .  S
N145        N146   1.321       .  A
N145        C149   1.344       .  A
N145       Cu153   2.068       .  S
N146        C147   1.344       .  A
N146       Cu152   2.075       .  S
C147        C148   1.387       .  A
C147        H150   1.083       .  S
C148        C149   1.386       .  A
C148       C3115   1.483       .  S
C149        H151   1.081       .  S
Cu152       N155   2.076       .  S
Cu153       N163   2.069       .  S
Cu154       N156   2.078       .  S
Cu154       N162   2.078       .  S
N155        N156   1.322       .  A
N155        C159   1.344       .  A
N156        C157   1.347       .  A
C157        C158   1.385       .  A
C157        H160   1.081       .  S
C158        C159   1.384       .  A
C158       C2985   1.479       .  S
C159        H161   1.084       .  S
N162        N163   1.322       .  A
N162        C166   1.346       .  A
N163        C164   1.343       .  A
C164        C165   1.382       .  A
C164        H167   1.082       .  S
C165        C166   1.384       .  A
C165       C2972   1.476       .  S
C166        H168   1.084       .  S
N169        N170   1.321       .  A
N169        C173   1.344       .  A
N169       Cu177   2.065       .  S
N170        C171   1.345       .  A
N170       Cu176   2.077       .  S
C171        C172   1.385       .  A
C171        H174   1.083       .  S
C172        C173   1.383       .  A
C172       C2962   1.478       .  S
C173        H175   1.082       .  S
Cu176       N179   2.077       .  S
Cu177       N187   2.065       .  S
Cu178       N180   2.079       .  S
Cu178       N186   2.079       .  S
N179        N180   1.323       .  A
N179        C183   1.344       .  A
N180        C181   1.346       .  A
C181        C182   1.386       .  A
C181        H184   1.084       .  S
C182        C183   1.385       .  A
C182       C2952   1.483       .  S
C183        H185   1.081       .  S
N186        N187   1.322       .  A
N186        C190   1.345       .  A
N187        C188   1.343       .  A
C188        C189   1.382       .  A
C188        H191   1.082       .  S
C189        C190   1.385       .  A
C189       C2975   1.477       .  S
C190        H192   1.084       .  S
N193        N194   1.322       .  A
N193        C197   1.345       .  A
N193       Cu201   2.079       .  S
N194        C195   1.345       .  A
N194       Cu200   2.073       .  S
C195        C196   1.385       .  A
C195        H198   1.081       .  S
C196        C197   1.386       .  A
C196       C2945   1.483       .  S
C197        H199   1.084       .  S
Cu200       N203   2.073       .  S
Cu201       N211   2.078       .  S
Cu202       N204   2.076       .  S
Cu202       N210   2.076       .  S
N203        N204   1.322       .  A
N203        C207   1.346       .  A
N204        C205   1.345       .  A
C205        C206   1.384       .  A
C205        H208   1.082       .  S
C206        C207   1.384       .  A
C206       C2955   1.478       .  S
C207        H209   1.083       .  S
N210        N211   1.323       .  A
N210        C214   1.344       .  A
N211        C212   1.346       .  A
C212        C213   1.384       .  A
C212        H215   1.082       .  S
C213        C214   1.383       .  A
C213       C2932   1.478       .  S
C214        H216   1.083       .  S
N217        N218   1.322       .  A
N217        C221   1.346       .  A
N217       Cu225   2.074       .  S
N218        C219   1.344       .  A
N218       Cu224   2.073       .  S
C219        C220   1.384       .  A
C219        H222   1.082       .  S
C220        C221   1.385       .  A
C220       C2925   1.479       .  S
C221        H223   1.083       .  S
Cu224       N227   2.074       .  S
Cu225       N235   2.074       .  S
Cu226       N228   2.074       .  S
Cu226       N234   2.075       .  S
N227        N228   1.322       .  A
N227        C231   1.345       .  A
N228        C229   1.345       .  A
C229        C230   1.385       .  A
C229        H232   1.081       .  S
C230        C231   1.384       .  A
C230       C2902   1.479       .  S
C231        H233   1.084       .  S
N234        N235   1.322       .  A
N234        C238   1.345       .  A
N235        C236   1.345       .  A
C236        C237   1.385       .  A
C236        H239   1.082       .  S
C237        C238   1.385       .  A
C237       C2912   1.480       .  S
C238        H240   1.083       .  S
N241        N242   1.322       .  A
N241        C245   1.343       .  A
N241       Cu249   2.067       .  S
N242        C243   1.345       .  A
N242       Cu248   2.073       .  S
C243        C244   1.384       .  A
C243        H246   1.082       .  S
C244        C245   1.382       .  A
C244       C3092   1.475       .  S
C245        H247   1.083       .  S
Cu248       N251   2.073       .  S
Cu249       N259   2.067       .  S
Cu250       N252   2.076       .  S
Cu250       N258   2.076       .  S
N251        N252   1.322       .  A
N251        C255   1.345       .  A
N252        C253   1.344       .  A
C253        C254   1.385       .  A
C253        H256   1.082       .  S
C254        C255   1.385       .  A
C254       C2905   1.482       .  S
C255        H257   1.081       .  S
N258        N259   1.321       .  A
N258        C262   1.346       .  A
N259        C260   1.343       .  A
C260        C261   1.383       .  A
C260        H263   1.083       .  S
C261        C262   1.386       .  A
C261       C2892   1.479       .  S
C262        H264   1.082       .  S
N265        N266   1.321       .  A
N265        C269   1.346       .  A
N265       Cu273   2.081       .  S
N266        C267   1.345       .  A
N266       Cu272   2.073       .  S
C267        C268   1.386       .  A
C267        H270   1.083       .  S
C268        C269   1.388       .  A
C268       C2882   1.486       .  S
C269        H271   1.081       .  S
Cu272       N275   2.073       .  S
Cu273       N283   2.080       .  S
Cu274       N276   2.077       .  S
Cu274       N282   2.077       .  S
N275        N276   1.322       .  A
N275        C279   1.344       .  A
N276        C277   1.346       .  A
C277        C278   1.386       .  A
C277        H280   1.083       .  S
C278        C279   1.385       .  A
C278       C2872   1.483       .  S
C279        H281   1.081       .  S
N282        N283   1.323       .  A
N282        C286   1.345       .  A
N283        C284   1.345       .  A
C284        C285   1.385       .  A
C284        H287   1.082       .  S
C285        C286   1.385       .  A
C285       C2895   1.482       .  S
C286        H288   1.081       .  S
N289        N290   1.321       .  A
N289        C293   1.343       .  A
N289       Cu297   2.070       .  S
N290        C291   1.345       .  A
N290       Cu296   2.068       .  S
C291        C292   1.383       .  A
C291        H294   1.082       .  S
C292        C293   1.383       .  A
C292       C2852   1.475       .  S
C293        H295   1.082       .  S
Cu296       N299   2.068       .  S
Cu297       N307   2.070       .  S
Cu298       N300   2.080       .  S
Cu298       N306   2.080       .  S
N299        N300   1.322       .  A
N299        C303   1.342       .  A
N300        C301   1.348       .  A
C301        C302   1.387       .  A
C301        H304   1.082       .  S
C302        C303   1.382       .  A
C302       C2862   1.481       .  S
C303        H305   1.083       .  S
N306        N307   1.323       .  A
N306        C310   1.345       .  A
N307        C308   1.344       .  A
C308        C309   1.383       .  A
C308        H311   1.083       .  S
C309        C310   1.385       .  A
C309       C2875   1.478       .  S
C310        H312   1.082       .  S
N313        N314   1.322       .  A
N313        C317   1.344       .  A
N313       Cu321   2.071       .  S
N314        C315   1.346       .  A
N314       Cu320   2.078       .  S
C315        C316   1.385       .  A
C315        H318   1.082       .  S
C316        C317   1.382       .  A
C316       C2832   1.477       .  S
C317        H319   1.083       .  S
Cu320       N323   2.078   1_556  S
Cu321       N331   2.071       .  S
Cu322       N324   2.069       .  S
Cu322       N330   2.069   1_554  S
N323        N324   1.322       .  A
N323        C327   1.345       .  A
N324        C325   1.345       .  A
C325        C326   1.384       .  A
C325        H328   1.081       .  S
C326        C327   1.385       .  A
C326       C2825   1.479       .  S
C327        H329   1.084       .  S
N330        N331   1.321       .  A
N330        C334   1.343   1_556  A
N331        C332   1.345       .  A
C332        C333   1.386       .  A
C332        H335   1.080       .  S
C333        C334   1.383   1_556  A
C333       C2842   1.479       .  S
C334        H336   1.089       .  S
N337        N338   1.323       .  A
N337        C341   1.347       .  A
N337       Cu345   2.079       .  S
N338        C339   1.345       .  A
N338       Cu344   2.082       .  S
C339        C340   1.384       .  A
C339        H342   1.084       .  S
C340        C341   1.385       .  A
C340       C2812   1.481       .  S
C341        H343   1.081       .  S
Cu344       N347   2.082   1_556  S
Cu345       N355   2.079       .  S
Cu346       N348   2.070       .  S
Cu346       N354   2.070   1_554  S
N347        N348   1.321       .  A
N347        C351   1.346       .  A
N348        C349   1.345       .  A
C349        C350   1.384       .  A
C349        H352   1.081       .  S
C350        C351   1.387       .  A
C350       C2805   1.483       .  S
C351        H353   1.082       .  S
N354        N355   1.322       .  A
N354        C358   1.344   1_556  A
N355        C356   1.345       .  A
C356        C357   1.385       .  A
C356        H359   1.086       .  S
C357        C358   1.385   1_556  A
C357       C2845   1.481       .  S
C358        H360   1.081       .  S
N361        N362   1.323       .  A
N361        C365   1.343       .  A
N361       Cu369   2.064       .  S
N362        C363   1.345       .  A
N362       Cu368   2.082       .  S
C363        C364   1.385       .  A
C363        H366   1.083       .  S
C364        C365   1.382       .  A
C364       C2782   1.477       .  S
C365        H367   1.081       .  S
Cu368       N371   2.082       .  S
Cu369       N379   2.063       .  S
Cu370       N372   2.065       .  S
Cu370       N378   2.064       .  S
N371        N372   1.322       .  A
N371        C375   1.346       .  A
N372        C373   1.344       .  A
C373        C374   1.382       .  A
C373        H376   1.083       .  S
C374        C375   1.387       .  A
C374       C2772   1.479       .  S
C375        H377   1.081       .  S
N378        N379   1.321       .  A
N378        C382   1.342       .  A
N379        C380   1.343       .  A
C380        C381   1.383       .  A
C380        H383   1.082       .  S
C381        C382   1.382       .  A
C381       C2792   1.473       .  S
C382        H384   1.084       .  S
N385        N386   1.321       .  A
N385        C389   1.344       .  A
N385       Cu393   2.069       .  S
N386        C387   1.344       .  A
N386       Cu392   2.071       .  S
C387        C388   1.384       .  A
C387        H390   1.082       .  S
C388        C389   1.384       .  A
C388       C2755   1.478       .  S
C389        H391   1.083       .  S
Cu392       N395   2.071       .  S
Cu393       N403   2.069       .  S
Cu394       N396   2.068       .  S
Cu394       N402   2.068       .  S
N395        N396   1.321       .  A
N395        C399   1.343       .  A
N396        C397   1.345       .  A
C397        C398   1.384       .  A
C397        H400   1.084       .  S
C398        C399   1.385       .  A
C398       C2762   1.479       .  S
C399        H401   1.081       .  S
N402        N403   1.322       .  A
N402        C406   1.342       .  A
N403        C404   1.344       .  A
C404        C405   1.383       .  A
C404        H407   1.081       .  S
C405        C406   1.382       .  A
C405       C2795   1.473       .  S
C406        H408   1.084       .  S
N409        N410   1.322       .  A
N409        C413   1.343       .  A
N409       Cu417   2.068       .  S
N410        C411   1.345       .  A
N410       Cu416   2.075       .  S
C411        C412   1.386       .  A
C411        H414   1.081       .  S
C412        C413   1.383       .  A
C412       C2822   1.480       .  S
C413        H415   1.083       .  S
Cu416       N419   2.075       .  S
Cu417       N427   2.068       .  S
Cu418       N420   2.072       .  S
Cu418       N426   2.072       .  S
N419        N420   1.322       .  A
N419        C423   1.346       .  A
N420        C421   1.343       .  A
C421        C422   1.384       .  A
C421        H424   1.083       .  S
C422        C423   1.386       .  A
C422       C2742   1.481       .  S
C423        H425   1.083       .  S
N426        N427   1.321       .  A
N426        C430   1.345       .  A
N427        C428   1.344       .  A
C428        C429   1.384       .  A
C428        H431   1.082       .  S
C429        C430   1.385       .  A
C429       C2765   1.478       .  S
C430        H432   1.082       .  S
N433        N434   1.321       .  A
N433        C437   1.342       .  A
N433       Cu441   2.059       .  S
N434        C435   1.345       .  A
N434       Cu440   2.073       .  S
C435        C436   1.385       .  A
C435        H438   1.083       .  S
C436        C437   1.382       .  A
C436       C2712   1.477       .  S
C437        H439   1.081       .  S
Cu440       N443   2.073       .  S
Cu441       N451   2.059       .  S
Cu442       N444   2.075       .  S
Cu442       N450   2.075       .  S
N443        N444   1.322       .  A
N443        C447   1.344       .  A
N444        C445   1.345       .  A
C445        C446   1.385       .  A
C445        H448   1.083       .  S
C446        C447   1.384       .  A
C446       C2725   1.480       .  S
C447        H449   1.081       .  S
N450        N451   1.322       .  A
N450        C454   1.345       .  A
N451        C452   1.343       .  A
C452        C453   1.380       .  A
C452        H455   1.083       .  S
C453        C454   1.385       .  A
C453       C2732   1.474       .  S
C454        H456   1.082       .  S
N457        N458   1.321       .  A
N457        C461   1.343       .  A
N457       Cu465   2.063       .  S
N458        C459   1.346       .  A
N458       Cu464   2.084       .  S
C459        C460   1.388       .  A
C459        H462   1.083       .  S
C460        C461   1.383       .  A
C460       C2692   1.482       .  S
C461        H463   1.081       .  S
Cu464       N467   2.084       .  S
Cu465       N475   2.063       .  S
Cu466       N468   2.071       .  S
Cu466       N474   2.071       .  S
N467        N468   1.323       .  A
N467        C471   1.346       .  A
N468        C469   1.344       .  A
C469        C470   1.383       .  A
C469        H472   1.083       .  S
C470        C471   1.387       .  A
C470       C2702   1.481       .  S
C471        H473   1.082       .  S
N474        N475   1.321       .  A
N474        C478   1.344       .  A
N475        C476   1.343       .  A
C476        C477   1.384       .  A
C476        H479   1.080       .  S
C477        C478   1.385       .  A
C477       C2735   1.478       .  S
C478        H480   1.083       .  S
N481        N482   1.323       .  A
N481        C485   1.346       .  A
N481       Cu489   2.078       .  S
N482        C483   1.346       .  A
N482       Cu488   2.079       .  S
C483        C484   1.385       .  A
C483        H486   1.082       .  S
C484        C485   1.384       .  A
C484       C2802   1.479       .  S
C485        H487   1.083       .  S
Cu488       N491   2.079       .  S
Cu489       N499   2.077       .  S
Cu490       N492   2.072       .  S
Cu490       N498   2.072       .  S
N491        N492   1.322       .  A
N491        C495   1.346       .  A
N492        C493   1.344       .  A
C493        C494   1.383       .  A
C493        H496   1.083       .  S
C494        C495   1.386       .  A
C494       C2682   1.480       .  S
C495        H497   1.081       .  S
N498        N499   1.322       .  A
N498        C502   1.344       .  A
N499        C500   1.346       .  A
C500        C501   1.385       .  A
C500        H503   1.082       .  S
C501        C502   1.384       .  A
C501       C2705   1.479       .  S
C502        H504   1.084       .  S
N505        N506   1.321       .  A
N505        C509   1.345       .  A
N505       Cu513   2.079       .  S
N506        C507   1.342       .  A
N506       Cu512   2.054       .  S
C507        C508   1.381       .  A
C507        H510   1.081       .  S
C508        C509   1.387       .  A
C508       C2662   1.477       .  S
C509        H511   1.083       .  S
Cu512       N515   2.054   1_565  S
Cu513       N523   2.080       .  S
Cu514       N516   2.066       .  S
Cu514       N522   2.067   1_545  S
N515        N516   1.320       .  A
N515        C519   1.339       .  A
N516        C517   1.345       .  A
C517        C518   1.386       .  A
C517        H520   1.082       .  S
C518        C519   1.382       .  A
C518       C2655   1.475       .  S
C519        H521   1.083       .  S
N522        N523   1.323       .  A
N522        C526   1.342   1_565  A
N523        C524   1.346       .  A
C524        C525   1.386       .  A
C524        H527   1.082       .  S
C525        C526   1.382   1_565  A
C525       C2672   1.479       .  S
C526        H528   1.084       .  S
N529        N530   1.323       .  A
N529        C533   1.346       .  A
N529       Cu537   2.077       .  S
N530        C531   1.344       .  A
N530       Cu536   2.074   1_545  S
C531        C532   1.383       .  A
C531        H534   1.082       .  S
C532        C533   1.384       .  A
C532       C2685   1.478       .  S
C533        H535   1.083       .  S
Cu536       N539   2.074       .  S
Cu537       N547   2.077       .  S
Cu538       N540   2.071       .  S
Cu538       N546   2.071       .  S
N539        N540   1.321       .  A
N539        C543   1.345       .  A
N540        C541   1.345       .  A
C541        C542   1.384       .  A
C541        H544   1.081       .  S
C542        C543   1.384       .  A
C542       C2642   1.479       .  S
C543        H545   1.083       .  S
N546        N547   1.322   1_565  A
N546        C550   1.344       .  A
N547        C548   1.345       .  A
C548        C549   1.386   1_545  A
C548        H551   1.081       .  S
C549        C550   1.384       .  A
C549       C2675   1.481       .  S
C550        H552   1.084       .  S
N553        N554   1.321       .  A
N553        C557   1.343       .  A
N553       Cu561   2.065       .  S
N554        C555   1.343       .  A
N554       Cu560   2.063   1_455  S
C555        C556   1.382       .  A
C555        H558   1.083       .  S
C556        C557   1.382       .  A
C556       C2615   1.472       .  S
C557        H559   1.083       .  S
Cu560       N563   2.064       .  S
Cu561       N571   2.065       .  S
Cu562       N564   2.070       .  S
Cu562       N570   2.070       .  S
N563        N564   1.322       .  A
N563        C567   1.343       .  A
N564        C565   1.343       .  A
C565        C566   1.384       .  A
C565        H568   1.081       .  S
C566        C567   1.383       .  A
C566       C2622   1.476       .  S
C567        H569   1.084       .  S
N570        N571   1.320   1_655  A
N570        C574   1.344       .  A
N571        C572   1.343       .  A
C572        C573   1.385   1_455  A
C572        H575   1.083       .  S
C573        C574   1.387       .  A
C573       C2632   1.482       .  S
C574        H576   1.081       .  S
N577        N578   1.322       .  A
N577        C581   1.346       .  A
N577       Cu585   2.074       .  S
N578        C579   1.343       .  A
N578       Cu584   2.067   1_455  S
C579        C580   1.381       .  A
C579        H582   1.084       .  S
C580        C581   1.384       .  A
C580       C2745   1.475       .  S
C581        H583   1.084       .  S
Cu584       N587   2.067       .  S
Cu585       N595   2.075       .  S
Cu586       N588   2.075       .  S
Cu586       N594   2.075       .  S
N587        N588   1.321       .  A
N587        C591   1.343       .  A
N588        C589   1.346       .  A
C589        C590   1.384       .  A
C589        H592   1.082       .  S
C590        C591   1.382       .  A
C590       C2602   1.476       .  S
C591        H593   1.082       .  S
N594        N595   1.322   1_655  A
N594        C598   1.343       .  A
N595        C596   1.345       .  A
C596        C597   1.386   1_455  A
C596        H599   1.081       .  S
C597        C598   1.385       .  A
C597       C2635   1.483       .  S
C598        H600   1.082       .  S
N601        N602   1.322       .  A
N601        C605   1.345       .  A
N601       Cu609   2.070       .  S
N602        C603   1.345       .  A
N602       Cu608   2.083       .  S
C603        C604   1.385       .  A
C603        H606   1.083       .  S
C604        C605   1.383       .  A
C604       C2575   1.478       .  S
C605        H607   1.082       .  S
Cu608       N611   2.083       .  S
Cu609       N619   2.070       .  S
Cu610       N612   2.082       .  S
Cu610       N618   2.082       .  S
N611        N612   1.322       .  A
N611        C615   1.346       .  A
N612        C613   1.347       .  A
C613        C614   1.387       .  A
C613        H616   1.082       .  S
C614        C615   1.387       .  A
C614       C2585   1.488       .  S
C615        H617   1.083       .  S
N618        N619   1.322       .  A
N618        C622   1.346       .  A
N619        C620   1.345       .  A
C620        C621   1.383       .  A
C620        H623   1.083       .  S
C621        C622   1.385       .  A
C621       C2592   1.479       .  S
C622        H624   1.082       .  S
N625        N626   1.321       .  A
N625        C629   1.344       .  A
N625       Cu633   2.068       .  S
N626        C627   1.345       .  A
N626       Cu632   2.073       .  S
C627        C628   1.385       .  A
C627        H630   1.084       .  S
C628        C629   1.384       .  A
C628       C2552   1.479       .  S
C629        H631   1.081       .  S
Cu632       N635   2.073       .  S
Cu633       N643   2.069       .  S
Cu634       N636   2.072       .  S
Cu634       N642   2.072       .  S
N635        N636   1.322       .  A
N635        C639   1.344       .  A
N636        C637   1.344       .  A
C637        C638   1.383       .  A
C637        H640   1.083       .  S
C638        C639   1.384       .  A
C638       C2565   1.477       .  S
C639        H641   1.082       .  S
N642        N643   1.322       .  A
N642        C646   1.345       .  A
N643        C644   1.344       .  A
C644        C645   1.383       .  A
C644        H647   1.082       .  S
C645        C646   1.384       .  A
C645       C2595   1.477       .  S
C646        H648   1.083       .  S
N649        N650   1.321       .  A
N649        C653   1.343       .  A
N649       Cu657   2.065       .  S
N650        C651   1.343       .  A
N650       Cu656   2.067       .  S
C651        C652   1.384       .  A
C651        H654   1.083       .  S
C652        C653   1.384       .  A
C652       C2562   1.477       .  S
C653        H655   1.084       .  S
Cu656       N659   2.066       .  S
Cu657       N667   2.065       .  S
Cu658       N660   2.064       .  S
Cu658       N666   2.064       .  S
N659        N660   1.322       .  A
N659        C663   1.343       .  A
N660        C661   1.342       .  A
C661        C662   1.382       .  A
C661        H664   1.082       .  S
C662        C663   1.382       .  A
C662       C2652   1.473       .  S
C663        H665   1.084       .  S
N666        N667   1.321       .  A
N666        C670   1.344       .  A
N667        C668   1.341       .  A
C668        C669   1.382       .  A
C668        H671   1.083       .  S
C669        C670   1.384       .  A
C669       C2612   1.474       .  S
C670        H672   1.083       .  S
N673        N674   1.324       .  A
N673        C677   1.346       .  A
N673       Cu681   2.080       .  S
N674        C675   1.347       .  A
N674       Cu680   2.087       .  S
C675        C676   1.386       .  A
C675        H678   1.083       .  S
C676        C677   1.385       .  A
C676       C2582   1.485       .  S
C677        H679   1.081       .  S
Cu680       N683   2.086       .  S
Cu681       N691   2.078       .  S
Cu682       N684   2.057       .  S
Cu682       N690   2.057       .  S
N683        N684   1.322       .  A
N683        C687   1.348       .  A
N684        C685   1.341       .  A
C685        C686   1.380       .  A
C685        H688   1.082       .  S
C686        C687   1.388       .  A
C686       C2785   1.478       .  S
C687        H689   1.081       .  S
N690        N691   1.321       .  A
N690        C694   1.342       .  A
N691        C692   1.346       .  A
C692        C693   1.386       .  A
C692        H695   1.082       .  S
C693        C694   1.381       .  A
C693       C2722   1.476       .  S
C694        H696   1.083       .  S
N697        N698   1.321       .  A
N697        C701   1.343       .  A
N697       Cu705   2.065       .  S
N698        C699   1.345       .  A
N698       Cu704   2.074   1_554  S
C699        C700   1.386       .  A
C699        H702   1.082       .  S
C700        C701   1.383       .  A
C700       C2532   1.478       .  S
C701        H703   1.082       .  S
Cu704       N707   2.074       .  S
Cu705       N715   2.065       .  S
Cu706       N708   2.087       .  S
Cu706       N714   2.086       .  S
N707        N708   1.323       .  A
N707        C711   1.345       .  A
N708        C709   1.346       .  A
C709        C710   1.387       .  A
C709        H712   1.084       .  S
C710        C711   1.384       .  A
C710       C2942   1.482       .  S
C711        H713   1.082       .  S
N714        N715   1.322   1_556  A
N714        C718   1.346       .  A
N715        C716   1.343       .  A
C716        C717   1.384   1_554  A
C716        H719   1.081       .  S
C717        C718   1.389       .  A
C717       C2542   1.484       .  S
C718        H720   1.083       .  S
N721        N722   1.321       .  A
N721        C725   1.348       .  A
N721       Cu729   2.089       .  S
N722        C723   1.343       .  A
N722       Cu728   2.063   1_554  S
C723        C724   1.383       .  A
C723        H726   1.081       .  S
C724        C725   1.388       .  A
C724       C2522   1.482       .  S
C725        H727   1.084       .  S
Cu728       N731   2.062       .  S
Cu729       N739   2.089       .  S
Cu730       N732   2.071       .  S
Cu730       N738   2.072       .  S
N731        N732   1.321       .  A
N731        C735   1.342       .  A
N732        C733   1.346       .  A
C733        C734   1.385       .  A
C733        H736   1.081       .  S
C734        C735   1.381       .  A
C734       C3025   1.475       .  S
C735        H737   1.084       .  S
N738        N739   1.324   1_556  A
N738        C742   1.344       .  A
N739        C740   1.347       .  A
C740        C741   1.386   1_554  A
C740        H743   1.083       .  S
C741        C742   1.383       .  A
C741       C2545   1.480       .  S
C742        H744   1.081       .  S
N745        N746   1.322       .  A
N745        C749   1.342       .  A
N745       Cu753   2.071       .  S
N746        C747   1.345       .  A
N746       Cu752   2.067       .  S
C747        C748   1.384       .  A
C747        H750   1.081       .  S
C748        C749   1.383       .  A
C748       C2505   1.477       .  S
C749        H751   1.083       .  S
Cu752       N755   2.067       .  S
Cu753       N763   2.071       .  S
Cu754       N756   2.063       .  S
Cu754       N762   2.063       .  S
N755        N756   1.321       .  A
N755        C759   1.343       .  A
N756        C757   1.343       .  A
C757        C758   1.382       .  A
C757        H760   1.083       .  S
C758        C759   1.384       .  A
C758       C2512   1.474       .  S
C759        H761   1.082       .  S
N762        N763   1.321       .  A
N762        C766   1.341       .  A
N763        C764   1.344       .  A
C764        C765   1.385       .  A
C764        H767   1.092       .  S
C765        C766   1.383       .  A
C765       C2492   1.478       .  S
C766        H768   1.086       .  S
N769        N770   1.322       .  A
N769        C773   1.346       .  A
N769       Cu777   2.081       .  S
N770        C771   1.345       .  A
N770       Cu776   2.074       .  S
C771        C772   1.383       .  A
C771        H774   1.083       .  S
C772        C773   1.386       .  A
C772       C2482   1.480       .  S
C773        H775   1.082       .  S
Cu776       N779   2.074       .  S
Cu777       N787   2.081       .  S
Cu778       N780   2.074       .  S
Cu778       N786   2.074       .  S
N779        N780   1.322       .  A
N779        C783   1.345       .  A
N780        C781   1.345       .  A
C781        C782   1.386       .  A
C781        H784   1.081       .  S
C782        C783   1.385       .  A
C782       C2472   1.481       .  S
C783        H785   1.083       .  S
N786        N787   1.322       .  A
N786        C790   1.346       .  A
N787        C788   1.345       .  A
C788        C789   1.386       .  A
C788        H791   1.083       .  S
C789        C790   1.386       .  A
C789       C2462   1.483       .  S
C790        H792   1.081       .  S
N793        N794   1.322       .  A
N793        C797   1.345       .  A
N793       Cu801   2.077       .  S
N794        C795   1.344       .  A
N794       Cu800   2.071       .  S
C795        C796   1.383       .  A
C795        H798   1.081       .  S
C796        C797   1.384       .  A
C796       C3085   1.478       .  S
C797        H799   1.083       .  S
Cu800       N803   2.070       .  S
Cu801       N811   2.076       .  S
Cu802       N804   2.072       .  S
Cu802       N810   2.072       .  S
N803        N804   1.321       .  A
N803        C807   1.344       .  A
N804        C805   1.345       .  A
C805        C806   1.386       .  A
C805        H808   1.082       .  S
C806        C807   1.386       .  A
C806       C2445   1.482       .  S
C807        H809   1.081       .  S
N810        N811   1.322       .  A
N810        C814   1.343       .  A
N811        C812   1.346       .  A
C812        C813   1.386       .  A
C812        H815   1.081       .  S
C813        C814   1.383       .  A
C813       C2452   1.479       .  S
C814        H816   1.083       .  S
N817        N818   1.322       .  A
N817        C821   1.342       .  A
N817       Cu825   2.066       .  S
N818        C819   1.346       .  A
N818       Cu824   2.076       .  S
C819        C820   1.385       .  A
C819        H822   1.082       .  S
C820        C821   1.382       .  A
C820       C2432   1.477       .  S
C821        H823   1.081       .  S
Cu824       N827   2.076       .  S
Cu825       N835   2.066       .  S
Cu826       N828   2.061       .  S
Cu826       N834   2.061       .  S
N827        N828   1.322       .  A
N827        C831   1.345       .  A
N828        C829   1.342       .  A
C829        C830   1.380       .  A
C829        H832   1.083       .  S
C830        C831   1.384       .  A
C830       C2515   1.473       .  S
C831        H833   1.082       .  S
N834        N835   1.320       .  A
N834        C838   1.343       .  A
N835        C836   1.344       .  A
C836        C837   1.384       .  A
C836        H839   1.081       .  S
C837        C838   1.382       .  A
C837       C2455   1.475       .  S
C838        H840   1.083       .  S
N841        N842   1.321       .  A
N841        C845   1.346       .  A
N841       Cu849   2.078       .  S
N842        C843   1.344       .  A
N842       Cu848   2.070       .  S
C843        C844   1.384       .  A
C843        H846   1.082       .  S
C844        C845   1.387       .  A
C844       C2425   1.482       .  S
C845        H847   1.081       .  S
Cu848       N851   2.070       .  S
Cu849       N859   2.079       .  S
Cu850       N852   2.077       .  S
Cu850       N858   2.077       .  S
N851        N852   1.322       .  A
N851        C855   1.344       .  A
N852        C853   1.346       .  A
C853        C854   1.386       .  A
C853        H856   1.082       .  S
C854        C855   1.384       .  A
C854       C2442   1.480       .  S
C855        H857   1.083       .  S
N858        N859   1.323       .  A
N858        C862   1.346       .  A
N859        C860   1.346       .  A
C860        C861   1.384       .  A
C860        H863   1.083       .  S
C861        C862   1.384       .  A
C861       C2572   1.480       .  S
C862        H864   1.080       .  S
N865        N866   1.321       .  A
N865        C869   1.344       .  A
N865       Cu873   2.070       .  S
N866        C867   1.345       .  A
N866       Cu872   2.069       .  S
C867        C868   1.383       .  A
C867        H870   1.082       .  S
C868        C869   1.383       .  A
C868       C2422   1.474       .  S
C869        H871   1.083       .  S
Cu872       N875   2.069       .  S
Cu873       N883   2.070       .  S
Cu874       N876   2.072       .  S
Cu874       N882   2.072       .  S
N875        N876   1.321       .  A
N875        C879   1.342       .  A
N876        C877   1.346       .  A
C877        C878   1.385       .  A
C877        H880   1.084       .  S
C878        C879   1.383       .  A
C878       C2992   1.479       .  S
C879        H881   1.081       .  S
N882        N883   1.322       .  A
N882        C886   1.343       .  A
N883        C884   1.345       .  A
C884        C885   1.385       .  A
C884        H887   1.081       .  S
C885        C886   1.384       .  A
C885       C2415   1.479       .  S
C886        H888   1.084       .  S
N889        N890   1.321       .  A
N889        C893   1.343       .  A
N889       Cu897   2.062       .  S
N890        C891   1.344       .  A
N890       Cu896   2.074       .  S
C891        C892   1.385       .  A
C891        H894   1.082       .  S
C892        C893   1.382       .  A
C892       C2402   1.477       .  S
C893        H895   1.084       .  S
Cu896       N899   2.075       .  S
Cu897       N907   2.062       .  S
Cu898       N900   2.075       .  S
Cu898       N906   2.075       .  S
N899        N900   1.322       .  A
N899        C903   1.345       .  A
N900        C901   1.345       .  A
C901        C902   1.385       .  A
C901        H904   1.082       .  S
C902        C903   1.384       .  A
C902       C2485   1.479       .  S
C903        H905   1.081       .  S
N906        N907   1.322       .  A
N906        C910   1.344       .  A
N907        C908   1.343       .  A
C908        C909   1.382       .  A
C908        H911   1.084       .  S
C909        C910   1.385       .  A
C909       C2412   1.476       .  S
C910        H912   1.081       .  S
N913        N914   1.322       .  A
N913        C917   1.346       .  A
N913       Cu921   2.076       .  S
N914        C915   1.344       .  A
N914       Cu920   2.075   1_554  S
C915        C916   1.384       .  A
C915        H918   1.083       .  S
C916        C917   1.385       .  A
C916       C2382   1.480       .  S
C917        H919   1.081       .  S
Cu920       N923   2.075       .  S
Cu921       N931   2.076   1_554  S
Cu922       N924   2.076       .  S
Cu922       N930   2.076       .  S
N923        N924   1.322       .  A
N923        C927   1.344       .  A
N924        C925   1.346       .  A
C925        C926   1.385       .  A
C925        H928   1.082       .  S
C926        C927   1.384       .  A
C926       C2475   1.480       .  S
C927        H929   1.082       .  S
N930        N931   1.323       .  A
N930        C934   1.346       .  A
N931        C932   1.344   1_556  A
C932        C933   1.384   1_554  A
C932        H935   1.083       .  S
C933        C934   1.385       .  A
C933       C2392   1.480       .  S
C934        H936   1.082       .  S
N937        N938   1.321       .  A
N937        C941   1.346       .  A
N937       Cu945   2.074       .  S
N938        C939   1.343       .  A
N938       Cu944   2.070   1_554  S
C939        C940   1.385       .  A
C939        H942   1.084       .  S
C940        C941   1.387       .  A
C940       C2362   1.483       .  S
C941        H943   1.081       .  S
Cu944       N947   2.070       .  S
Cu945       N955   2.075   1_554  S
Cu946       N948   2.072       .  S
Cu946       N954   2.072       .  S
N947        N948   1.322       .  A
N947        C951   1.343       .  A
N948        C949   1.345       .  A
C949        C950   1.385       .  A
C949        H952   1.081       .  S
C950        C951   1.384       .  A
C950       C2372   1.479       .  S
C951        H953   1.083       .  S
N954        N955   1.323       .  A
N954        C958   1.346       .  A
N955        C956   1.344   1_556  A
C956        C957   1.383   1_554  A
C956        H959   1.082       .  S
C957        C958   1.383       .  A
C957       C2395   1.476       .  S
C958        H960   1.083       .  S
N961        N962   1.322       .  A
N961        C965   1.344       .  A
N961       Cu969   2.070       .  S
N962        C963   1.346       .  A
N962       Cu968   2.082       .  S
C963        C964   1.387       .  A
C963        H966   1.082       .  S
C964        C965   1.383       .  A
C964       C2355   1.481       .  S
C965        H967   1.083       .  S
Cu968       N971   2.082       .  S
Cu969       N979   2.070       .  S
Cu970       N972   2.076       .  S
Cu970       N978   2.076       .  S
N971        N972   1.323       .  A
N971        C975   1.346       .  A
N972        C973   1.345       .  A
C973        C974   1.385       .  A
C973        H976   1.080       .  S
C974        C975   1.386       .  A
C974       C2385   1.483       .  S
C975        H977   1.083       .  S
N978        N979   1.322       .  A
N978        C982   1.345       .  A
N979        C980   1.345       .  A
C980        C981   1.384       .  A
C980        H983   1.081       .  S
C981        C982   1.384       .  A
C981       C2695   1.479       .  S
C982        H984   1.083       .  S
N985        N986   1.322       .  A
N985        C989   1.346       .  A
N985       Cu993   2.078       .  S
N986        C987   1.345       .  A
N986       Cu992   2.078   1_545  S
C987        C988   1.385       .  A
C987        H990   1.083       .  S
C988        C989   1.386       .  A
C988       C2352   1.482       .  S
C989        H991   1.082       .  S
Cu992       N995   2.078       .  S
Cu993      N1003   2.077       .  S
Cu994       N996   2.072       .  S
Cu994      N1002   2.072       .  S
N995        N996   1.322       .  A
N995        C999   1.345       .  A
N996        C997   1.346       .  A
C997        C998   1.385       .  A
C997       H1000   1.081       .  S
C998        C999   1.385       .  A
C998       C2335   1.481       .  S
C999       H1001   1.083       .  S
N1002      N1003   1.322   1_565  A
N1002      C1006   1.344       .  A
N1003      C1004   1.345       .  A
C1004      C1005   1.386   1_545  A
C1004      H1007   1.084       .  S
C1005      C1006   1.385       .  A
C1005      C2342   1.481       .  S
C1006      H1008   1.082       .  S
N1009      N1010   1.322       .  A
N1009      C1013   1.345       .  A
N1009     Cu1017   2.072       .  S
N1010      C1011   1.344       .  A
N1010     Cu1016   2.069   1_545  S
C1011      C1012   1.382       .  A
C1011      H1014   1.083       .  S
C1012      C1013   1.384       .  A
C1012      C2312   1.474       .  S
C1013      H1015   1.081       .  S
Cu1016     N1019   2.069       .  S
Cu1017     N1027   2.072       .  S
Cu1018     N1020   2.077       .  S
Cu1018     N1026   2.077       .  S
N1019      N1020   1.321       .  A
N1019      C1023   1.344       .  A
N1020      C1021   1.346       .  A
C1021      C1022   1.386       .  A
C1021      H1024   1.083       .  S
C1022      C1023   1.384       .  A
C1022      C2322   1.480       .  S
C1023      H1025   1.081       .  S
N1026      N1027   1.323   1_565  A
N1026      C1030   1.344       .  A
N1027      C1028   1.345       .  A
C1028      C1029   1.384   1_545  A
C1028      H1031   1.084       .  S
C1029      C1030   1.384       .  A
C1029      C2345   1.479       .  S
C1030      H1032   1.084       .  S
N1033      N1034   1.322       .  A
N1033      C1037   1.347       .  A
N1033     Cu1041   2.084       .  S
N1034      C1035   1.345       .  A
N1034     Cu1040   2.075       .  S
C1035      C1036   1.385       .  A
C1035      H1038   1.083       .  S
C1036      C1037   1.388       .  A
C1036      C2332   1.485       .  S
C1037      H1039   1.081       .  S
Cu1040     N1043   2.075       .  S
Cu1041     N1051   2.084       .  S
Cu1042     N1044   2.080       .  S
Cu1042     N1050   2.080       .  S
N1043      N1044   1.322       .  A
N1043      C1047   1.345       .  A
N1044      C1045   1.347       .  A
C1045      C1046   1.386       .  A
C1045      H1048   1.082       .  S
C1046      C1047   1.384       .  A
C1046      C2305   1.481       .  S
C1047      H1049   1.082       .  S
N1050      N1051   1.323       .  A
N1050      C1054   1.346       .  A
N1051      C1052   1.346       .  A
C1052      C1053   1.386       .  A
C1052      H1055   1.083       .  S
C1053      C1054   1.385       .  A
C1053      C2525   1.484       .  S
C1054      H1056   1.082       .  S
N1057      N1058   1.321       .  A
N1057      C1061   1.343       .  A
N1057     Cu1065   2.066       .  S
N1058      C1059   1.344       .  A
N1058     Cu1064   2.069       .  S
C1059      C1060   1.384       .  A
C1059      H1062   1.083       .  S
C1060      C1061   1.384       .  A
C1060      C2502   1.476       .  S
C1061      H1063   1.082       .  S
Cu1064     N1067   2.069   1_556  S
Cu1065     N1075   2.066       .  S
Cu1066     N1068   2.070       .  S
Cu1066     N1074   2.069       .  S
N1067      N1068   1.321       .  A
N1067      C1071   1.343       .  A
N1068      C1069   1.345       .  A
C1069      C1070   1.385       .  A
C1069      H1072   1.084       .  S
C1070      C1071   1.384       .  A
C1070      C2282   1.479       .  S
C1071      H1073   1.084       .  S
N1074      N1075   1.322   1_554  A
N1074      C1078   1.344       .  A
N1075      C1076   1.344       .  A
C1076      C1077   1.382       .  A
C1076      H1079   1.082       .  S
C1077      C1078   1.381   1_556  A
C1077      C2292   1.471       .  S
C1078      H1080   1.083       .  S
N1081      N1082   1.321       .  A
N1081      C1085   1.347       .  A
N1081     Cu1089   2.077       .  S
N1082      C1083   1.344       .  A
N1082     Cu1088   2.073   1_554  S
C1083      C1084   1.385       .  A
C1083      H1086   1.083       .  S
C1084      C1085   1.388       .  A
C1084      C2262   1.485       .  S
C1085      H1087   1.081       .  S
Cu1088     N1091   2.073       .  S
Cu1089     N1099   2.077   1_554  S
Cu1090     N1092   2.072       .  S
Cu1090     N1098   2.072       .  S
N1091      N1092   1.321       .  A
N1091      C1095   1.343       .  A
N1092      C1093   1.347       .  A
C1093      C1094   1.387       .  A
C1093      H1096   1.081       .  S
C1094      C1095   1.384       .  A
C1094      C2272   1.481       .  S
C1095      H1097   1.083       .  S
N1098      N1099   1.323       .  A
N1098      C1102   1.344       .  A
N1099      C1100   1.345   1_556  A
C1100      C1101   1.384   1_554  A
C1100      H1103   1.082       .  S
C1101      C1102   1.382       .  A
C1101      C2295   1.476       .  S
C1102      H1104   1.083       .  S
N1105      N1106   1.323       .  A
N1105      C1109   1.347       .  A
N1105     Cu1113   2.084       .  S
N1106      C1107   1.344       .  A
N1106     Cu1112   2.077       .  S
C1107      C1108   1.383       .  A
C1107      H1110   1.083       .  S
C1108      C1109   1.387       .  A
C1108      C2252   1.481       .  S
C1109      H1111   1.081       .  S
Cu1112     N1115   2.076       .  S
Cu1113     N1123   2.083       .  S
Cu1114     N1116   2.066       .  S
Cu1114     N1122   2.067       .  S
N1115      N1116   1.321       .  A
N1115      C1119   1.346       .  A
N1116      C1117   1.343       .  A
C1117      C1118   1.383       .  A
C1117      H1120   1.082       .  S
C1118      C1119   1.385       .  A
C1118      C2285   1.478       .  S
C1119      H1121   1.084       .  S
N1122      N1123   1.322       .  A
N1122      C1126   1.343       .  A
N1123      C1124   1.347       .  A
C1124      C1125   1.387       .  A
C1124      H1127   1.081       .  S
C1125      C1126   1.383       .  A
C1125      C2752   1.481       .  S
C1126      H1128   1.083       .  S
N1129      N1130   1.322       .  A
N1129      C1133   1.346       .  A
N1129     Cu1137   2.072       .  S
N1130      C1131   1.345       .  A
N1130     Cu1136   2.082   1_455  S
C1131      C1132   1.386       .  A
C1131      H1134   1.083       .  S
C1132      C1133   1.386       .  A
C1132      C2255   1.484       .  S
C1133      H1135   1.082       .  S
Cu1136     N1139   2.081       .  S
Cu1137     N1147   2.071   1_455  S
Cu1138     N1140   2.056       .  S
Cu1138     N1146   2.056       .  S
N1139      N1140   1.322       .  A
N1139      C1143   1.347       .  A
N1140      C1141   1.341       .  A
C1141      C1142   1.379       .  A
C1141      H1144   1.083       .  S
C1142      C1143   1.387       .  A
C1142      C2235   1.475       .  S
C1143      H1145   1.082       .  S
N1146      N1147   1.321       .  A
N1146      C1150   1.344       .  A
N1147      C1148   1.343   1_655  A
C1148      C1149   1.382   1_455  A
C1148      H1151   1.082       .  S
C1149      C1150   1.380       .  A
C1149      C2242   1.469       .  S
C1150      H1152   1.083       .  S
N1153      N1154   1.321       .  A
N1153      C1157   1.346       .  A
N1153     Cu1161   2.072       .  S
N1154      C1155   1.341       .  A
N1154     Cu1160   2.064   1_455  S
C1155      C1156   1.381       .  A
C1155      H1158   1.082       .  S
C1156      C1157   1.385       .  A
C1156      C2215   1.474       .  S
C1157      H1159   1.083       .  S
Cu1160     N1163   2.064       .  S
Cu1161     N1171   2.072   1_455  S
Cu1162     N1164   2.069       .  S
Cu1162     N1170   2.069       .  S
N1163      N1164   1.320       .  A
N1163      C1167   1.343       .  A
N1164      C1165   1.345       .  A
C1165      C1166   1.386       .  A
C1165      H1168   1.081       .  S
C1166      C1167   1.384       .  A
C1166      C2222   1.479       .  S
C1167      H1169   1.083       .  S
N1170      N1171   1.324       .  A
N1170      C1174   1.344       .  A
N1171      C1172   1.344   1_655  A
C1172      C1173   1.381   1_455  A
C1172      H1175   1.083       .  S
C1173      C1174   1.380       .  A
C1173      C2245   1.469       .  S
C1174      H1176   1.082       .  S
N1177      N1178   1.322       .  A
N1177      C1181   1.344       .  A
N1177     Cu1185   2.069       .  S
N1178      C1179   1.343       .  A
N1178     Cu1184   2.070       .  S
C1179      C1180   1.384       .  A
C1179      H1182   1.084       .  S
C1180      C1181   1.384       .  A
C1180      C2202   1.478       .  S
C1181      H1183   1.081       .  S
Cu1184     N1187   2.069       .  S
Cu1185     N1195   2.069       .  S
Cu1186     N1188   2.069       .  S
Cu1186     N1194   2.069       .  S
N1187      N1188   1.322       .  A
N1187      C1191   1.345       .  A
N1188      C1189   1.342       .  A
C1189      C1190   1.383       .  A
C1189      H1192   1.083       .  S
C1190      C1191   1.384       .  A
C1190      C2232   1.475       .  S
C1191      H1193   1.082       .  S
N1194      N1195   1.321       .  A
N1194      C1198   1.344       .  A
N1195      C1196   1.344       .  A
C1196      C1197   1.384       .  A
C1196      H1199   1.083       .  S
C1197      C1198   1.385       .  A
C1197      C2535   1.479       .  S
C1198      H1200   1.082       .  S
N1201      N1202   1.323       .  A
N1201      C1205   1.349       .  A
N1201     Cu1209   2.088       .  S
N1202      C1203   1.343       .  A
N1202     Cu1208   2.069   1_545  S
C1203      C1204   1.381       .  A
C1203      H1206   1.083       .  S
C1204      C1205   1.387       .  A
C1204      C2182   1.478       .  S
C1205      H1207   1.082       .  S
Cu1208     N1211   2.069       .  S
Cu1209     N1219   2.088   1_545  S
Cu1210     N1212   2.075       .  S
Cu1210     N1218   2.076       .  S
N1211      N1212   1.321       .  A
N1211      C1215   1.345       .  A
N1212      C1213   1.345       .  A
C1213      C1214   1.384       .  A
C1213      H1216   1.083       .  S
C1214      C1215   1.384       .  A
C1214      C2865   1.478       .  S
C1215      H1217   1.081       .  S
N1218      N1219   1.323       .  A
N1218      C1222   1.346       .  A
N1219      C1220   1.346   1_565  A
C1220      C1221   1.387   1_545  A
C1220      H1223   1.083       .  S
C1221      C1222   1.385       .  A
C1221      C2192   1.484       .  S
C1222      H1224   1.081       .  S
N1225      N1226   1.322       .  A
N1225      C1229   1.347       .  A
N1225     Cu1233   2.084       .  S
N1226      C1227   1.344       .  A
N1226     Cu1232   2.069   1_545  S
C1227      C1228   1.383       .  A
C1227      H1230   1.082       .  S
C1228      C1229   1.386       .  A
C1228      C2465   1.480       .  S
C1229      H1231   1.083       .  S
Cu1232     N1235   2.069       .  S
Cu1233     N1243   2.085   1_545  S
Cu1234     N1236   2.078       .  S
Cu1234     N1242   2.079       .  S
N1235      N1236   1.321       .  A
N1235      C1239   1.344       .  A
N1236      C1237   1.346       .  A
C1237      C1238   1.387       .  A
C1237      H1240   1.082       .  S
C1238      C1239   1.385       .  A
C1238      C3015   1.483       .  S
C1239      H1241   1.081       .  S
N1242      N1243   1.323       .  A
N1242      C1246   1.345       .  A
N1243      C1244   1.347   1_565  A
C1244      C1245   1.388   1_545  A
C1244      H1247   1.080       .  S
C1245      C1246   1.386       .  A
C1245      C2195   1.486       .  S
C1246      H1248   1.083       .  S
N1249      N1250   1.321       .  A
N1249      C1253   1.343       .  A
N1249     Cu1257   2.062       .  S
N1250      C1251   1.345       .  A
N1250     Cu1256   2.074       .  S
C1251      C1252   1.385       .  A
C1251      H1254   1.083       .  S
C1252      C1253   1.382       .  A
C1252      C2855   1.477       .  S
C1253      H1255   1.081       .  S
Cu1256     N1259   2.074   1_655  S
Cu1257     N1267   2.063       .  S
Cu1258     N1260   2.073       .  S
Cu1258     N1266   2.072       .  S
N1259      N1260   1.322       .  A
N1259      C1263   1.343       .  A
N1260      C1261   1.345       .  A
C1261      C1262   1.385       .  A
C1261      H1264   1.080       .  S
C1262      C1263   1.384       .  A
C1262      C2165   1.479       .  S
C1263      H1265   1.084       .  S
N1266      N1267   1.321   1_455  A
N1266      C1270   1.344       .  A
N1267      C1268   1.344       .  A
C1268      C1269   1.384       .  A
C1268      H1271   1.081       .  S
C1269      C1270   1.385   1_655  A
C1269      C2172   1.479       .  S
C1270      H1272   1.084       .  S
N1273      N1274   1.321       .  A
N1273      C1277   1.345       .  A
N1273     Cu1281   2.071       .  S
N1274      C1275   1.343       .  A
N1274     Cu1280   2.067       .  S
C1275      C1276   1.383       .  A
C1275      H1278   1.085       .  S
C1276      C1277   1.385       .  A
C1276      C2935   1.478       .  S
C1277      H1279   1.083       .  S
Cu1280     N1283   2.067   1_655  S
Cu1281     N1291   2.071       .  S
Cu1282     N1284   2.073       .  S
Cu1282     N1290   2.073       .  S
N1283      N1284   1.322       .  A
N1283      C1287   1.343       .  A
N1284      C1285   1.345       .  A
C1285      C1286   1.384       .  A
C1285      H1288   1.083       .  S
C1286      C1287   1.382       .  A
C1286      C2495   1.475       .  S
C1287      H1289   1.083       .  S
N1290      N1291   1.323   1_455  A
N1290      C1294   1.344       .  A
N1291      C1292   1.344       .  A
C1292      C1293   1.382       .  A
C1292      H1295   1.084       .  S
C1293      C1294   1.384   1_655  A
C1293      C2175   1.476       .  S
C1294      H1296   1.082       .  S
N1297      N1298   1.322       .  A
N1297      C1301   1.342       .  A
N1297     Cu1305   2.064       .  S
N1298      C1299   1.347       .  A
N1298     Cu1304   2.086       .  S
C1299      C1300   1.388       .  A
C1299      H1302   1.082       .  S
C1300      C1301   1.383       .  A
C1300      C2915   1.482       .  S
C1301      H1303   1.083       .  S
Cu1304     N1307   2.087       .  S
Cu1305     N1315   2.064       .  S
Cu1306     N1308   2.079       .  S
Cu1306     N1314   2.078       .  S
N1307      N1308   1.323       .  A
N1307      C1311   1.347       .  A
N1308      C1309   1.346       .  A
C1309      C1310   1.384       .  A
C1309      H1312   1.082       .  S
C1310      C1311   1.385       .  A
C1310      C2142   1.481       .  S
C1311      H1313   1.084       .  S
N1314      N1315   1.320       .  A
N1314      C1318   1.345       .  A
N1315      C1316   1.344       .  A
C1316      C1317   1.385       .  A
C1316      H1319   1.080       .  S
C1317      C1318   1.387       .  A
C1317      C2152   1.483       .  S
C1318      H1320   1.083       .  S
N1321      N1322   1.321       .  A
N1321      C1325   1.347       .  A
N1321     Cu1329   2.079       .  S
N1322      C1323   1.344       .  A
N1322     Cu1328   2.074       .  S
C1323      C1324   1.386       .  A
C1323      H1326   1.081       .  S
C1324      C1325   1.387       .  A
C1324      C2302   1.485       .  S
C1325      H1327   1.084       .  S
Cu1328     N1331   2.074       .  S
Cu1329     N1339   2.079       .  S
Cu1330     N1332   2.076       .  S
Cu1330     N1338   2.076       .  S
N1331      N1332   1.322       .  A
N1331      C1335   1.344       .  A
N1332      C1333   1.346       .  A
C1333      C1334   1.386       .  A
C1333      H1336   1.082       .  S
C1334      C1335   1.384       .  A
C1334      C2132   1.480       .  S
C1335      H1337   1.083       .  S
N1338      N1339   1.322       .  A
N1338      C1342   1.345       .  A
N1339      C1340   1.344       .  A
C1340      C1341   1.386       .  A
C1340      H1343   1.083       .  S
C1341      C1342   1.386       .  A
C1341      C2155   1.484       .  S
C1342      H1344   1.081       .  S
N1345      N1346   1.321       .  A
N1345      C1349   1.346       .  A
N1345     Cu1353   2.080       .  S
N1346      C1347   1.347       .  A
N1346     Cu1352   2.081       .  S
C1347      C1348   1.388       .  A
C1347      H1350   1.081       .  S
C1348      C1349   1.387       .  A
C1348      C2145   1.488       .  S
C1349      H1351   1.082       .  S
Cu1352     N1355   2.081       .  S
Cu1353     N1363   2.080       .  S
Cu1354     N1356   2.076       .  S
Cu1354     N1362   2.076       .  S
N1355      N1356   1.322       .  A
N1355      C1359   1.344       .  A
N1356      C1357   1.346       .  A
C1357      C1358   1.385       .  A
C1357      H1360   1.083       .  S
C1358      C1359   1.386       .  A
C1358      C2122   1.483       .  S
C1359      H1361   1.081       .  S
N1362      N1363   1.322       .  A
N1362      C1366   1.346       .  A
N1363      C1364   1.345       .  A
C1364      C1365   1.387       .  A
C1364      H1367   1.082       .  S
C1365      C1366   1.387       .  A
C1365      C2775   1.485       .  S
C1366      H1368   1.082       .  S
N1369      N1370   1.322       .  A
N1369      C1373   1.345       .  A
N1369     Cu1377   2.070       .  S
N1370      C1371   1.344       .  A
N1370     Cu1376   2.073       .  S
C1371      C1372   1.385       .  A
C1371      H1374   1.082       .  S
C1372      C1373   1.385       .  A
C1372      C3072   1.479       .  S
C1373      H1375   1.082       .  S
Cu1376     N1379   2.073       .  S
Cu1377     N1387   2.070       .  S
Cu1378     N1380   2.074       .  S
Cu1378     N1386   2.073       .  S
N1379      N1380   1.322       .  A
N1379      C1383   1.345       .  A
N1380      C1381   1.344       .  A
C1381      C1382   1.383       .  A
C1381      H1384   1.083       .  S
C1382      C1383   1.383       .  A
C1382      C2125   1.476       .  S
C1383      H1385   1.085       .  S
N1386      N1387   1.322       .  A
N1386      C1390   1.345       .  A
N1387      C1388   1.344       .  A
C1388      C1389   1.384       .  A
C1388      H1391   1.082       .  S
C1389      C1390   1.385       .  A
C1389      C2112   1.479       .  S
C1390      H1392   1.082       .  S
N1393      N1394   1.321       .  A
N1393      C1397   1.343       .  A
N1393     Cu1401   2.066       .  S
N1394      C1395   1.346       .  A
N1394     Cu1400   2.075       .  S
C1395      C1396   1.387       .  A
C1395      H1398   1.082       .  S
C1396      C1397   1.384       .  A
C1396      C2095   1.482       .  S
C1397      H1399   1.083       .  S
Cu1400     N1403   2.075       .  S
Cu1401     N1411   2.067       .  S
Cu1402     N1404   2.075       .  S
Cu1402     N1410   2.075       .  S
N1403      N1404   1.323       .  A
N1403      C1407   1.344       .  A
N1404      C1405   1.346       .  A
C1405      C1406   1.383       .  A
C1405      H1408   1.082       .  S
C1406      C1407   1.382       .  A
C1406      C2102   1.476       .  S
C1407      H1409   1.082       .  S
N1410      N1411   1.322       .  A
N1410      C1414   1.345       .  A
N1411      C1412   1.343       .  A
C1412      C1413   1.383       .  A
C1412      H1415   1.081       .  S
C1413      C1414   1.385       .  A
C1413      C2115   1.478       .  S
C1414      H1416   1.082       .  S
N1417      N1418   1.322       .  A
N1417      C1421   1.346       .  A
N1417     Cu1425   2.081       .  S
N1418      C1419   1.344       .  A
N1418     Cu1424   2.067       .  S
C1419      C1420   1.383       .  A
C1419      H1422   1.082       .  S
C1420      C1421   1.387       .  A
C1420      C2082   1.481       .  S
C1421      H1423   1.081       .  S
Cu1424     N1427   2.067       .  S
Cu1425     N1435   2.081       .  S
Cu1426     N1428   2.068       .  S
Cu1426     N1434   2.068       .  S
N1427      N1428   1.322       .  A
N1427      C1431   1.344       .  A
N1428      C1429   1.343       .  A
C1429      C1430   1.381       .  A
C1429      H1432   1.083       .  S
C1430      C1431   1.382       .  A
C1430      C2162   1.471       .  S
C1431      H1433   1.082       .  S
N1434      N1435   1.322       .  A
N1434      C1438   1.344       .  A
N1435      C1436   1.345       .  A
C1436      C1437   1.385       .  A
C1436      H1439   1.082       .  S
C1437      C1438   1.382       .  A
C1437      C2092   1.477       .  S
C1438      H1440   1.083       .  S
N1441      N1442   1.322       .  A
N1441      C1445   1.345       .  A
N1441     Cu1449   2.073       .  S
N1442      C1443   1.345       .  A
N1442     Cu1448   2.077       .  S
C1443      C1444   1.384       .  A
C1443      H1446   1.084       .  S
C1444      C1445   1.384       .  A
C1444      C2085   1.479       .  S
C1445      H1447   1.081       .  S
Cu1448     N1451   2.076   1_565  S
Cu1449     N1459   2.073       .  S
Cu1450     N1452   2.059       .  S
Cu1450     N1458   2.059   1_545  S
N1451      N1452   1.321       .  A
N1451      C1455   1.344       .  A
N1452      C1453   1.343       .  A
C1453      C1454   1.381       .  A
C1453      H1456   1.083       .  S
C1454      C1455   1.385       .  A
C1454      C2062   1.475       .  S
C1455      H1457   1.081       .  S
N1458      N1459   1.321       .  A
N1458      C1462   1.342   1_565  A
N1459      C1460   1.345       .  A
C1460      C1461   1.384       .  A
C1460      H1463   1.082       .  S
C1461      C1462   1.381   1_565  A
C1461      C2072   1.473       .  S
C1462      H1464   1.083       .  S
N1465      N1466   1.322       .  A
N1465      C1469   1.347       .  A
N1465     Cu1473   2.081       .  S
N1466      C1467   1.343       .  A
N1466     Cu1472   2.070       .  S
C1467      C1468   1.384       .  A
C1467      H1470   1.081       .  S
C1468      C1469   1.387       .  A
C1468      C2055   1.483       .  S
C1469      H1471   1.083       .  S
Cu1472     N1475   2.069   1_565  S
Cu1473     N1483   2.081       .  S
Cu1474     N1476   2.069       .  S
Cu1474     N1482   2.070   1_545  S
N1475      N1476   1.320       .  A
N1475      C1479   1.343       .  A
N1476      C1477   1.345       .  A
C1477      C1478   1.386       .  A
C1477      H1480   1.080       .  S
C1478      C1479   1.384       .  A
C1478      C2042   1.481       .  S
C1479      H1481   1.083       .  S
N1482      N1483   1.323       .  A
N1482      C1486   1.343   1_565  A
N1483      C1484   1.346       .  A
C1484      C1485   1.385       .  A
C1484      H1487   1.083       .  S
C1485      C1486   1.383   1_565  A
C1485      C2075   1.478       .  S
C1486      H1488   1.081       .  S
N1489      N1490   1.321       .  A
N1489      C1493   1.341       .  A
N1489     Cu1497   2.056       .  S
N1490      C1491   1.345       .  A
N1490     Cu1496   2.070       .  S
C1491      C1492   1.384       .  A
C1491      H1494   1.082       .  S
C1492      C1493   1.380       .  A
C1492      C2065   1.472       .  S
C1493      H1495   1.082       .  S
Cu1496     N1499   2.071       .  S
Cu1497     N1507   2.056       .  S
Cu1498     N1500   2.077       .  S
Cu1498     N1506   2.076       .  S
N1499      N1500   1.323       .  A
N1499      C1503   1.344       .  A
N1500      C1501   1.345       .  A
C1501      C1502   1.385       .  A
C1501      H1504   1.082       .  S
C1502      C1503   1.383       .  A
C1502      C2032   1.478       .  S
C1503      H1505   1.083       .  S
N1506      N1507   1.321       .  A
N1506      C1510   1.345       .  A
N1507      C1508   1.342       .  A
C1508      C1509   1.381       .  A
C1508      H1511   1.083       .  S
C1509      C1510   1.387       .  A
C1509      C2555   1.477       .  S
C1510      H1512   1.080       .  S
N1513      N1514   1.323       .  A
N1513      C1517   1.345       .  A
N1513     Cu1521   2.075       .  S
N1514      C1515   1.345       .  A
N1514     Cu1520   2.074   1_455  S
C1515      C1516   1.383       .  A
C1515      H1518   1.082       .  S
C1516      C1517   1.383       .  A
C1516      C2035   1.475       .  S
C1517      H1519   1.083       .  S
Cu1520     N1523   2.074       .  S
Cu1521     N1531   2.075       .  S
Cu1522     N1524   2.063       .  S
Cu1522     N1530   2.063       .  S
N1523      N1524   1.321       .  A
N1523      C1527   1.345       .  A
N1524      C1525   1.343       .  A
C1525      C1526   1.382       .  A
C1525      H1528   1.083       .  S
C1526      C1527   1.385       .  A
C1526      C2015   1.476       .  S
C1527      H1529   1.082       .  S
N1530      N1531   1.321   1_655  A
N1530      C1534   1.343       .  A
N1531      C1532   1.345       .  A
C1532      C1533   1.386   1_455  A
C1532      H1535   1.081       .  S
C1533      C1534   1.381       .  A
C1533      C2022   1.477       .  S
C1534      H1536   1.083       .  S
N1537      N1538   1.322       .  A
N1537      C1541   1.345       .  A
N1537     Cu1545   2.076       .  S
N1538      C1539   1.343       .  A
N1538     Cu1544   2.070       .  S
C1539      C1540   1.384       .  A
C1539      H1542   1.082       .  S
C1540      C1541   1.386       .  A
C1540      C2002   1.481       .  S
C1541      H1543   1.084       .  S
Cu1544     N1547   2.070   1_655  S
Cu1545     N1555   2.076       .  S
Cu1546     N1548   2.065       .  S
Cu1546     N1554   2.066   1_455  S
N1547      N1548   1.321       .  A
N1547      C1551   1.344       .  A
N1548      C1549   1.344       .  A
C1549      C1550   1.384       .  A
C1549      H1552   1.081       .  S
C1550      C1551   1.385       .  A
C1550      C1992   1.478       .  S
C1551      H1553   1.083       .  S
N1554      N1555   1.322       .  A
N1554      C1558   1.343   1_655  A
N1555      C1556   1.346       .  A
C1556      C1557   1.385       .  A
C1556      H1559   1.081       .  S
C1557      C1558   1.381   1_655  A
C1557      C2025   1.475       .  S
C1558      H1560   1.083       .  S
N1561      N1562   1.323       .  A
N1561      C1565   1.345       .  A
N1561     Cu1569   2.078       .  S
N1562      C1563   1.344       .  A
N1562     Cu1568   2.077       .  S
C1563      C1564   1.383       .  A
C1563      H1566   1.083       .  S
C1564      C1565   1.385       .  A
C1564      C2012   1.478       .  S
C1565      H1567   1.082       .  S
Cu1568     N1571   2.077       .  S
Cu1569     N1579   2.078       .  S
Cu1570     N1572   2.071       .  S
Cu1570     N1578   2.071       .  S
N1571      N1572   1.321       .  A
N1571      C1575   1.346       .  A
N1572      C1573   1.344       .  A
C1573      C1574   1.386       .  A
C1573      H1576   1.081       .  S
C1574      C1575   1.387       .  A
C1574      C1982   1.484       .  S
C1575      H1577   1.083       .  S
N1578      N1579   1.322       .  A
N1578      C1582   1.343       .  A
N1579      C1580   1.347       .  A
C1580      C1581   1.388       .  A
C1580      H1583   1.081       .  S
C1581      C1582   1.384       .  A
C1581      C2185   1.483       .  S
C1582      H1584   1.082       .  S
N1585      N1586   1.322       .  A
N1585      C1589   1.344       .  A
N1585     Cu1593   2.071       .  S
N1586      C1587   1.344       .  A
N1586     Cu1592   2.071       .  S
C1587      C1588   1.383       .  A
C1587      H1590   1.083       .  S
C1588      C1589   1.383       .  A
C1588      C2922   1.476       .  S
C1589      H1591   1.084       .  S
Cu1592     N1595   2.071       .  S
Cu1593     N1603   2.071       .  S
Cu1594     N1596   2.066       .  S
Cu1594     N1602   2.066       .  S
N1595      N1596   1.322       .  A
N1595      C1599   1.343       .  A
N1596      C1597   1.344       .  A
C1597      C1598   1.383       .  A
C1597      H1600   1.083       .  S
C1598      C1599   1.384       .  A
C1598      C1962   1.477       .  S
C1599      H1601   1.083       .  S
N1602      N1603   1.322       .  A
N1602      C1606   1.343       .  A
N1603      C1604   1.344       .  A
C1604      C1605   1.384       .  A
C1604      H1607   1.083       .  S
C1605      C1606   1.383       .  A
C1605      C1972   1.476       .  S
C1606      H1608   1.084       .  S
N1609      N1610   1.321       .  A
N1609      C1613   1.345       .  A
N1609     Cu1617   2.071       .  S
N1610      C1611   1.343       .  A
N1610     Cu1616   2.068       .  S
C1611      C1612   1.382       .  A
C1611      H1614   1.082       .  S
C1612      C1613   1.385       .  A
C1612      C2205   1.476       .  S
C1613      H1615   1.082       .  S
Cu1616     N1619   2.068       .  S
Cu1617     N1627   2.071       .  S
Cu1618     N1620   2.076       .  S
Cu1618     N1626   2.075       .  S
N1619      N1620   1.321       .  A
N1619      C1623   1.344       .  A
N1620      C1621   1.345       .  A
C1621      C1622   1.387       .  A
C1621      H1624   1.083       .  S
C1622      C1623   1.386       .  A
C1622      C1952   1.484       .  S
C1623      H1625   1.081       .  S
N1626      N1627   1.322       .  A
N1626      C1630   1.345       .  A
N1627      C1628   1.344       .  A
C1628      C1629   1.383       .  A
C1628      H1631   1.084       .  S
C1629      C1630   1.384       .  A
C1629      C1975   1.477       .  S
C1630      H1632   1.082       .  S
N1633      N1634   1.322       .  A
N1633      C1637   1.346       .  A
N1633     Cu1641   2.076       .  S
N1634      C1635   1.342       .  A
N1634     Cu1640   2.063       .  S
C1635      C1636   1.381       .  A
C1635      H1638   1.082       .  S
C1636      C1637   1.384       .  A
C1636      C1965   1.474       .  S
C1637      H1639   1.084       .  S
Cu1640     N1643   2.063       .  S
Cu1641     N1651   2.076       .  S
Cu1642     N1644   2.066       .  S
Cu1642     N1650   2.066       .  S
N1643      N1644   1.320       .  A
N1643      C1647   1.343       .  A
N1644      C1645   1.343       .  A
C1645      C1646   1.384       .  A
C1645      H1648   1.082       .  S
C1646      C1647   1.383       .  A
C1646      C1945   1.476       .  S
C1647      H1649   1.083       .  S
N1650      N1651   1.323       .  A
N1650      C1654   1.344       .  A
N1651      C1652   1.344       .  A
C1652      C1653   1.383       .  A
C1652      H1655   1.083       .  S
C1653      C1654   1.381       .  A
C1653      C2715   1.474       .  S
C1654      H1656   1.081       .  S
N1657      N1658   1.322       .  A
N1657      C1661   1.343       .  A
N1657     Cu1665   2.072       .  S
N1658      C1659   1.346       .  A
N1658     Cu1664   2.074       .  S
C1659      C1660   1.386       .  A
C1659      H1662   1.081       .  S
C1660      C1661   1.384       .  A
C1660      C3005   1.480       .  S
C1661      H1663   1.083       .  S
Cu1664     N1667   2.074       .  S
Cu1665     N1675   2.072       .  S
Cu1666     N1668   2.073       .  S
Cu1666     N1674   2.073       .  S
N1667      N1668   1.322       .  A
N1667      C1671   1.344       .  A
N1668      C1669   1.344       .  A
C1669      C1670   1.383       .  A
C1669      H1672   1.083       .  S
C1670      C1671   1.384       .  A
C1670      C1942   1.478       .  S
C1671      H1673   1.082       .  S
N1674      N1675   1.321       .  A
N1674      C1678   1.345       .  A
N1675      C1676   1.345       .  A
C1676      C1677   1.385       .  A
C1676      H1679   1.083       .  S
C1677      C1678   1.386       .  A
C1677      C1932   1.482       .  S
C1678      H1680   1.082       .  S
N1681      N1682   1.322       .  A
N1681      C1685   1.347       .  A
N1681     Cu1689   2.077       .  S
N1682      C1683   1.344       .  A
N1682     Cu1688   2.076       .  S
C1683      C1684   1.384       .  A
C1683      H1686   1.084       .  S
C1684      C1685   1.386       .  A
C1684      C1985   1.481       .  S
C1685      H1687   1.082       .  S
Cu1688     N1691   2.076       .  S
Cu1689     N1699   2.077       .  S
Cu1690     N1692   2.080       .  S
Cu1690     N1698   2.080       .  S
N1691      N1692   1.322       .  A
N1691      C1695   1.346       .  A
N1692      C1693   1.345       .  A
C1693      C1694   1.386       .  A
C1693      H1696   1.083       .  S
C1694      C1695   1.386       .  A
C1694      C1922   1.483       .  S
C1695      H1697   1.081       .  S
N1698      N1699   1.322       .  A
N1698      C1702   1.345       .  A
N1699      C1700   1.345       .  A
C1700      C1701   1.386       .  A
C1700      H1703   1.081       .  S
C1701      C1702   1.386       .  A
C1701      C1935   1.484       .  S
C1702      H1704   1.082       .  S
N1705      N1706   1.323       .  A
N1705      C1709   1.346       .  A
N1705     Cu1713   2.079       .  S
N1706      C1707   1.344       .  A
N1706     Cu1712   2.073       .  S
C1707      C1708   1.383       .  A
C1707      H1710   1.082       .  S
C1708      C1709   1.384       .  A
C1708      C1955   1.479       .  S
C1709      H1711   1.084       .  S
Cu1712     N1715   2.073       .  S
Cu1713     N1723   2.079       .  S
Cu1714     N1716   2.071       .  S
Cu1714     N1722   2.071       .  S
N1715      N1716   1.321       .  A
N1715      C1719   1.345       .  A
N1716      C1717   1.344       .  A
C1717      C1718   1.385       .  A
C1717      H1720   1.082       .  S
C1718      C1719   1.386       .  A
C1718      C2605   1.481       .  S
C1719      H1721   1.083       .  S
N1722      N1723   1.322       .  A
N1722      C1726   1.345       .  A
N1723      C1724   1.345       .  A
C1724      C1725   1.384       .  A
C1724      H1727   1.084       .  S
C1725      C1726   1.383       .  A
C1725      C2365   1.478       .  S
C1726      H1728   1.081       .  S
N1729      N1730   1.324       .  A
N1729      C1733   1.347       .  A
N1729     Cu1737   2.085       .  S
N1730      C1731   1.347       .  A
N1730     Cu1736   2.081       .  S
C1731      C1732   1.384       .  A
C1731      H1734   1.081       .  S
C1732      C1733   1.384       .  A
C1732      C2265   1.479       .  S
C1733      H1735   1.083       .  S
Cu1736     N1739   2.080       .  S
Cu1737     N1747   2.085       .  S
Cu1738     N1740   2.071       .  S
Cu1738     N1746   2.071       .  S
N1739      N1740   1.322       .  A
N1739      C1743   1.346       .  A
N1740      C1741   1.345       .  A
C1741      C1742   1.384       .  A
C1741      H1744   1.083       .  S
C1742      C1743   1.386       .  A
C1742      C2645   1.480       .  S
C1743      H1745   1.081       .  S
N1746      N1747   1.322       .  A
N1746      C1750   1.344       .  A
N1747      C1748   1.348       .  A
C1748      C1749   1.387       .  A
C1748      H1751   1.081       .  S
C1749      C1750   1.382       .  A
C1749      C2135   1.481       .  S
C1750      H1752   1.082       .  S
N1753      N1754   1.321       .  A
N1753      C1757   1.345       .  A
N1753     Cu1761   2.074       .  S
N1754      C1755   1.343       .  A
N1754     Cu1760   2.065       .  S
C1755      C1756   1.384       .  A
C1755      H1758   1.081       .  S
C1756      C1757   1.385       .  A
C1756      C2315   1.479       .  S
C1757      H1759   1.083       .  S
Cu1760     N1763   2.065       .  S
Cu1761     N1771   2.075       .  S
Cu1762     N1764   2.074       .  S
Cu1762     N1770   2.075       .  S
N1763      N1764   1.322       .  A
N1763      C1767   1.343       .  A
N1764      C1765   1.344       .  A
C1765      C1766   1.384       .  A
C1765      H1768   1.081       .  S
C1766      C1767   1.382       .  A
C1766      C2625   1.476       .  S
C1767      H1769   1.082       .  S
N1770      N1771   1.322       .  A
N1770      C1774   1.346       .  A
N1771      C1772   1.344       .  A
C1772      C1773   1.385       .  A
C1772      H1775   1.081       .  S
C1773      C1774   1.386       .  A
C1773      C1925   1.482       .  S
C1774      H1776   1.083       .  S
N1777      N1778   1.320       .  A
N1777      C1781   1.345       .  A
N1777     Cu1785   2.073       .  S
N1778      C1779   1.342       .  A
N1778     Cu1784   2.062       .  S
C1779      C1780   1.383       .  A
C1779      H1782   1.084       .  S
C1780      C1781   1.387       .  A
C1780      C2105   1.480       .  S
C1781      H1783   1.082       .  S
Cu1784     N1787   2.061       .  S
Cu1785     N1795   2.073       .  S
Cu1786     N1788   2.069       .  S
Cu1786     N1794   2.070       .  S
N1787      N1788   1.321       .  A
N1787      C1791   1.342       .  A
N1788      C1789   1.345       .  A
C1789      C1790   1.384       .  A
C1789      H1792   1.081       .  S
C1790      C1791   1.380       .  A
C1790      C2665   1.473       .  S
C1791      H1793   1.083       .  S
N1794      N1795   1.323       .  A
N1794      C1798   1.344       .  A
N1795      C1796   1.343       .  A
C1796      C1797   1.383       .  A
C1796      H1799   1.084       .  S
C1797      C1798   1.383       .  A
C1797      C2212   1.476       .  S
C1798      H1800   1.082       .  S
N1801      N1802   1.322       .  A
N1801      C1805   1.342       .  A
N1801     Cu1809   2.062       .  S
N1802      C1803   1.345       .  A
N1802     Cu1808   2.079       .  S
C1803      C1804   1.386       .  A
C1803      H1806   1.083       .  S
C1804      C1805   1.382       .  A
C1804      C1995   1.478       .  S
C1805      H1807   1.081       .  S
Cu1808     N1811   2.079       .  S
Cu1809     N1819   2.062       .  S
Cu1810     N1812   2.072       .  S
Cu1810     N1818   2.071       .  S
N1811      N1812   1.322       .  A
N1811      C1815   1.346       .  A
N1812      C1813   1.343       .  A
C1813      C1814   1.385       .  A
C1813      H1816   1.083       .  S
C1814      C1815   1.387       .  A
C1814      C2835   1.484       .  S
C1815      H1817   1.082       .  S
N1818      N1819   1.320       .  A
N1818      C1822   1.344       .  A
N1819      C1820   1.344       .  A
C1820      C1821   1.384       .  A
C1820      H1823   1.080       .  S
C1821      C1822   1.385       .  A
C1821      C2435   1.479       .  S
C1822      H1824   1.083       .  S
N1825      N1826   1.321       .  A
N1825      C1829   1.344       .  A
N1825     Cu1833   2.069       .  S
N1826      C1827   1.345       .  A
N1826     Cu1832   2.075       .  S
C1827      C1828   1.385       .  A
C1827      H1830   1.081       .  S
C1828      C1829   1.384       .  A
C1828      C2045   1.479       .  S
C1829      H1831   1.082       .  S
Cu1832     N1835   2.076       .  S
Cu1833     N1843   2.069       .  S
Cu1834     N1836   2.077       .  S
Cu1834     N1842   2.077       .  S
N1835      N1836   1.321       .  A
N1835      C1839   1.344       .  A
N1836      C1837   1.346       .  A
C1837      C1838   1.388       .  A
C1837      H1840   1.081       .  S
C1838      C1839   1.386       .  A
C1838      C2815   1.486       .  S
C1839      H1841   1.083       .  S
N1842      N1843   1.322       .  A
N1842      C1846   1.345       .  A
N1843      C1844   1.343       .  A
C1844      C1845   1.384       .  A
C1844      H1847   1.082       .  S
C1845      C1846   1.386       .  A
C1845      C2405   1.480       .  S
C1846      H1848   1.081       .  S
N1849      N1850   1.322       .  A
N1849      C1853   1.345       .  A
N1849     Cu1857   2.078       .  S
N1850      C1851   1.346       .  A
N1850     Cu1856   2.078       .  S
C1851      C1852   1.386       .  A
C1851      H1854   1.082       .  S
C1852      C1853   1.385       .  A
C1852      C2325   1.483       .  S
C1853      H1855   1.083       .  S
Cu1856     N1859   2.077       .  S
Cu1857     N1867   2.079       .  S
Cu1858     N1860   2.074       .  S
Cu1858     N1866   2.074       .  S
N1859      N1860   1.322       .  A
N1859      C1863   1.345       .  A
N1860      C1861   1.345       .  A
C1861      C1862   1.385       .  A
C1861      H1864   1.081       .  S
C1862      C1863   1.385       .  A
C1862      C2225   1.481       .  S
C1863      H1865   1.082       .  S
N1866      N1867   1.321       .  A
N1866      C1870   1.345       .  A
N1867      C1868   1.346       .  A
C1868      C1869   1.387       .  A
C1868      H1871   1.083       .  S
C1869      C1870   1.386       .  A
C1869      C2885   1.485       .  S
C1870      H1872   1.080       .  S
N1873      N1874   1.323       .  A
N1873      C1877   1.344       .  A
N1873     Cu1881   2.082       .  S
N1874      C1875   1.345       .  A
N1874     Cu1880   2.074       .  S
C1875      C1876   1.384       .  A
C1875      H1878   1.083       .  S
C1876      C1877   1.385       .  A
C1876      C2005   1.480       .  S
C1877      H1879   1.083       .  S
Cu1880     N1883   2.073       .  S
Cu1881     N1891   2.082       .  S
Cu1882     N1884   2.062       .  S
Cu1882     N1890   2.061       .  S
N1883      N1884   1.321       .  A
N1883      C1887   1.345       .  A
N1884      C1885   1.342       .  A
C1885      C1886   1.382       .  A
C1885      H1888   1.081       .  S
C1886      C1887   1.385       .  A
C1886      C2375   1.476       .  S
C1887      H1889   1.084       .  S
N1890      N1891   1.320       .  A
N1890      C1894   1.343       .  A
N1891      C1892   1.346       .  A
C1892      C1893   1.390       .  A
C1892      H1895   1.083       .  S
C1893      C1894   1.384       .  A
C1893      C2965   1.485       .  S
C1894      H1896   1.080       .  S
N1897      N1898   1.322       .  A
N1897      C1901   1.346       .  A
N1897     Cu1905   2.075       .  S
N1898      C1899   1.345       .  A
N1898     Cu1904   2.081       .  S
C1899      C1900   1.387       .  A
C1899      H1902   1.083       .  S
C1900      C1901   1.386       .  A
C1900      C2052   1.485       .  S
C1901      H1903   1.081       .  S
Cu1904     N1907   2.081       .  S
Cu1905     N1915   2.075       .  S
Cu1906     N1908   2.068       .  S
Cu1906     N1914   2.068       .  S
N1907      N1908   1.322       .  A
N1907      C1911   1.345       .  A
N1908      C1909   1.345       .  A
C1909      C1910   1.384       .  A
C1909      H1912   1.084       .  S
C1910      C1911   1.387       .  A
C1910      C2275   1.482       .  S
C1911      H1913   1.080       .  S
N1914      N1915   1.322       .  A
N1914      C1918   1.344       .  A
N1915      C1916   1.344       .  A
C1916      C1917   1.385       .  A
C1916      H1919   1.083       .  S
C1917      C1918   1.384       .  A
C1917      C3045   1.479       .  S
C1918      H1920   1.082       .  S
C1921      C1922   1.404       .  A
C1921      C1926   1.399       .  A
C1921      H1928   1.083       .  S
C1922      C1923   1.412       .  A
C1923      C1924   1.401       .  A
C1923     Br1930   1.920       .  S
C1924      C1925   1.405       .  A
C1924      H1929   1.083       .  S
C1925      C1926   1.412       .  A
C1926     Br1927   1.920       .  S
C1931      C1932   1.404       .  A
C1931      C1936   1.400       .  A
C1931      H1938   1.083       .  S
C1932      C1933   1.411       .  A
C1933      C1934   1.399       .  A
C1933     Br1940   1.920       .  S
C1934      C1935   1.404       .  A
C1934      H1939   1.083       .  S
C1935      C1936   1.412       .  A
C1936     Br1937   1.920       .  S
C1941      C1942   1.404       .  A
C1941      C1946   1.398       .  A
C1941      H1948   1.083       .  S
C1942      C1943   1.411       .  A
C1943      C1944   1.398       .  A
C1943     Br1950   1.920       .  S
C1944      C1945   1.403       .  A
C1944      H1949   1.083       .  S
C1945      C1946   1.410       .  A
C1946     Br1947   1.920       .  S
C1951      C1952   1.405       .  A
C1951      C1956   1.398       .  A
C1951      H1958   1.083       .  S
C1952      C1953   1.415       .  A
C1953      C1954   1.401       .  A
C1953     Br1960   1.920       .  S
C1954      C1955   1.403       .  A
C1954      H1959   1.083       .  S
C1955      C1956   1.409       .  A
C1956     Br1957   1.920       .  S
C1961      C1962   1.403       .  A
C1961      C1966   1.396       .  A
C1961      H1968   1.083       .  S
C1962      C1963   1.412       .  A
C1963      C1964   1.399       .  A
C1963     Br1970   1.920       .  S
C1964      C1965   1.402       .  A
C1964      H1969   1.083       .  S
C1965      C1966   1.410       .  A
C1966     Br1967   1.920       .  S
C1971      C1972   1.403       .  A
C1971      C1976   1.398       .  A
C1971      H1978   1.083       .  S
C1972      C1973   1.409       .  A
C1973      C1974   1.398       .  A
C1973     Br1980   1.920       .  S
C1974      C1975   1.404       .  A
C1974      H1979   1.083       .  S
C1975      C1976   1.410       .  A
C1976     Br1977   1.919       .  S
C1981      C1982   1.405       .  A
C1981      C1986   1.401       .  A
C1981      H1988   1.083       .  S
C1982      C1983   1.413       .  A
C1983      C1984   1.399       .  A
C1983     Br1990   1.920       .  S
C1984      C1985   1.403       .  A
C1984      H1989   1.083       .  S
C1985      C1986   1.411       .  A
C1986     Br1987   1.919       .  S
C1991      C1992   1.403       .  A
C1991      C1996   1.397       .  A
C1991      H1998   1.083       .  S
C1992      C1993   1.411       .  A
C1993      C1994   1.399       .  A
C1993     Br2000   1.920       .  S
C1994      C1995   1.403       .  A
C1994      H1999   1.083       .  S
C1995      C1996   1.412       .  A
C1996     Br1997   1.920       .  S
C2001      C2002   1.405       .  A
C2001      C2006   1.400       .  A
C2001      H2008   1.083       .  S
C2002      C2003   1.412       .  A
C2003      C2004   1.397       .  A
C2003     Br2010   1.920       .  S
C2004      C2005   1.403       .  A
C2004      H2009   1.083       .  S
C2005      C2006   1.411       .  A
C2006     Br2007   1.920       .  S
C2011      C2012   1.404       .  A
C2011      C2016   1.398       .  A
C2011      H2018   1.083       .  S
C2012      C2013   1.410       .  A
C2013      C2014   1.399       .  A
C2013     Br2020   1.919       .  S
C2014      C2015   1.404       .  A
C2014      H2019   1.083       .  S
C2015      C2016   1.409       .  A
C2016     Br2017   1.920       .  S
C2021      C2022   1.405       .  A
C2021      C2026   1.399       .  A
C2021      H2028   1.083       .  S
C2022      C2023   1.410   1_655  A
C2023      C2024   1.398       .  A
C2023     Br2030   1.920       .  S
C2024      C2025   1.403   1_455  A
C2024      H2029   1.083       .  S
C2025      C2026   1.408       .  A
C2026     Br2027   1.919       .  S
C2031      C2032   1.405       .  A
C2031      C2036   1.399       .  A
C2031      H2038   1.083       .  S
C2032      C2033   1.411       .  A
C2033      C2034   1.398       .  A
C2033     Br2040   1.920       .  S
C2034      C2035   1.402       .  A
C2034      H2039   1.083       .  S
C2035      C2036   1.409       .  A
C2036     Br2037   1.919       .  S
C2041      C2042   1.404       .  A
C2041      C2046   1.399       .  A
C2041      H2048   1.082       .  S
C2042      C2043   1.413       .  A
C2043      C2044   1.399       .  A
C2043     Br2050   1.920       .  S
C2044      C2045   1.404       .  A
C2044      H2049   1.083       .  S
C2045      C2046   1.410       .  A
C2046     Br2047   1.920       .  S
C2051      C2052   1.404       .  A
C2051      C2056   1.399       .  A
C2051      H2058   1.083       .  S
C2052      C2053   1.413       .  A
C2053      C2054   1.402       .  A
C2053     Br2060   1.920       .  S
C2054      C2055   1.404       .  A
C2054      H2059   1.083       .  S
C2055      C2056   1.412       .  A
C2056     Br2057   1.920       .  S
C2061      C2062   1.405       .  A
C2061      C2066   1.398       .  A
C2061      H2068   1.083       .  S
C2062      C2063   1.410       .  A
C2063      C2064   1.397       .  A
C2063     Br2070   1.920       .  S
C2064      C2065   1.403       .  A
C2064      H2069   1.083       .  S
C2065      C2066   1.408       .  A
C2066     Br2067   1.920       .  S
C2071      C2072   1.401   1_545  A
C2071      C2076   1.396       .  A
C2071      H2078   1.083       .  S
C2072      C2073   1.408       .  A
C2073      C2074   1.400       .  A
C2073     Br2080   1.919       .  S
C2074      C2075   1.405       .  A
C2074      H2079   1.083       .  S
C2075      C2076   1.412   1_565  A
C2076     Br2077   1.920       .  S
C2081      C2082   1.405       .  A
C2081      C2086   1.400       .  A
C2081      H2088   1.083       .  S
C2082      C2083   1.411       .  A
C2083      C2084   1.399       .  A
C2083     Br2090   1.919       .  S
C2084      C2085   1.403       .  A
C2084      H2089   1.083       .  S
C2085      C2086   1.410       .  A
C2086     Br2087   1.920       .  S
C2091      C2092   1.403       .  A
C2091      C2096   1.400       .  A
C2091      H2098   1.083       .  S
C2092      C2093   1.408       .  A
C2093      C2094   1.398       .  A
C2093     Br2100   1.919       .  S
C2094      C2095   1.405       .  A
C2094      H2099   1.083       .  S
C2095      C2096   1.412       .  A
C2096     Br2097   1.920       .  S
C2101      C2102   1.403       .  A
C2101      C2106   1.400       .  A
C2101      H2108   1.083       .  S
C2102      C2103   1.408       .  A
C2103      C2104   1.397       .  A
C2103     Br2110   1.920       .  S
C2104      C2105   1.405       .  A
C2104      H2109   1.083       .  S
C2105      C2106   1.413       .  A
C2106     Br2107   1.920       .  S
C2111      C2112   1.403       .  A
C2111      C2116   1.397       .  A
C2111      H2118   1.083       .  S
C2112      C2113   1.411       .  A
C2113      C2114   1.399       .  A
C2113     Br2120   1.919       .  S
C2114      C2115   1.404       .  A
C2114      H2119   1.083       .  S
C2115      C2116   1.411       .  A
C2116     Br2117   1.920       .  S
C2121      C2122   1.406       .  A
C2121      C2126   1.401       .  A
C2121      H2128   1.083       .  S
C2122      C2123   1.414       .  A
C2123      C2124   1.399       .  A
C2123     Br2130   1.920       .  S
C2124      C2125   1.401       .  A
C2124      H2129   1.083       .  S
C2125      C2126   1.408       .  A
C2126     Br2127   1.920       .  S
C2131      C2132   1.404       .  A
C2131      C2136   1.400       .  A
C2131      H2138   1.083       .  S
C2132      C2133   1.410       .  A
C2133      C2134   1.400       .  A
C2133     Br2140   1.919       .  S
C2134      C2135   1.405       .  A
C2134      H2139   1.083       .  S
C2135      C2136   1.411       .  A
C2136     Br2137   1.919       .  S
C2141      C2142   1.402       .  A
C2141      C2146   1.402       .  A
C2141      H2148   1.083       .  S
C2142      C2143   1.410       .  A
C2143      C2144   1.401       .  A
C2143     Br2150   1.919       .  S
C2144      C2145   1.406       .  A
C2144      H2149   1.083       .  S
C2145      C2146   1.415       .  A
C2146     Br2147   1.919       .  S
C2151      C2152   1.405       .  A
C2151      C2156   1.400       .  A
C2151      H2158   1.082       .  S
C2152      C2153   1.413       .  A
C2153      C2154   1.398       .  A
C2153     Br2160   1.920       .  S
C2154      C2155   1.405       .  A
C2154      H2159   1.082       .  S
C2155      C2156   1.413       .  A
C2156     Br2157   1.920       .  S
C2161      C2162   1.401       .  A
C2161      C2166   1.398       .  A
C2161      H2168   1.083       .  S
C2162      C2163   1.407       .  A
C2163      C2164   1.398       .  A
C2163     Br2170   1.920       .  S
C2164      C2165   1.405       .  A
C2164      H2169   1.083       .  S
C2165      C2166   1.412       .  A
C2166     Br2167   1.919       .  S
C2171      C2172   1.404   1_455  A
C2171      C2176   1.397       .  A
C2171      H2178   1.083       .  S
C2172      C2173   1.412       .  A
C2173      C2174   1.399       .  A
C2173     Br2180   1.920       .  S
C2174      C2175   1.403       .  A
C2174      H2179   1.083       .  S
C2175      C2176   1.409   1_655  A
C2176     Br2177   1.920       .  S
C2181      C2182   1.403       .  A
C2181      C2186   1.399       .  A
C2181      H2188   1.083       .  S
C2182      C2183   1.408       .  A
C2183      C2184   1.400       .  A
C2183     Br2190   1.918       .  S
C2184      C2185   1.407       .  A
C2184      H2189   1.083       .  S
C2185      C2186   1.412       .  A
C2186     Br2187   1.919       .  S
C2191      C2192   1.404   1_545  A
C2191      C2196   1.401       .  A
C2191      H2198   1.083       .  S
C2192      C2193   1.412       .  A
C2193      C2194   1.401       .  A
C2193     Br2200   1.920       .  S
C2194      C2195   1.406       .  A
C2194      H2199   1.083       .  S
C2195      C2196   1.412   1_565  A
C2196     Br2197   1.919       .  S
C2201      C2202   1.404       .  A
C2201      C2206   1.398       .  A
C2201      H2208   1.083       .  S
C2202      C2203   1.412       .  A
C2203      C2204   1.398       .  A
C2203     Br2210   1.920       .  S
C2204      C2205   1.403       .  A
C2204      H2209   1.083       .  S
C2205      C2206   1.410       .  A
C2206     Br2207   1.920       .  S
C2211      C2212   1.402       .  A
C2211      C2216   1.396       .  A
C2211      H2218   1.083       .  S
C2212      C2213   1.411       .  A
C2213      C2214   1.400       .  A
C2213     Br2220   1.920       .  S
C2214      C2215   1.403       .  A
C2214      H2219   1.083       .  S
C2215      C2216   1.410       .  A
C2216     Br2217   1.920       .  S
C2221      C2222   1.404       .  A
C2221      C2226   1.399       .  A
C2221      H2228   1.083       .  S
C2222      C2223   1.411       .  A
C2223      C2224   1.399       .  A
C2223     Br2230   1.920       .  S
C2224      C2225   1.404       .  A
C2224      H2229   1.083       .  S
C2225      C2226   1.411       .  A
C2226     Br2227   1.920       .  S
C2231      C2232   1.404       .  A
C2231      C2236   1.397       .  A
C2231      H2238   1.083       .  S
C2232      C2233   1.409       .  A
C2233      C2234   1.398       .  A
C2233     Br2240   1.920       .  S
C2234      C2235   1.405       .  A
C2234      H2239   1.083       .  S
C2235      C2236   1.409       .  A
C2236     Br2237   1.919       .  S
C2241      C2242   1.403       .  A
C2241      C2246   1.398       .  A
C2241      H2248   1.083       .  S
C2242      C2243   1.408       .  A
C2243      C2244   1.396       .  A
C2243     Br2250   1.920   1_655  S
C2244      C2245   1.401       .  A
C2244      H2249   1.083   1_655  S
C2245      C2246   1.409       .  A
C2246     Br2247   1.919       .  S
C2251      C2252   1.404       .  A
C2251      C2256   1.401       .  A
C2251      H2258   1.083       .  S
C2252      C2253   1.410       .  A
C2253      C2254   1.399       .  A
C2253     Br2260   1.919       .  S
C2254      C2255   1.405       .  A
C2254      H2259   1.083       .  S
C2255      C2256   1.413       .  A
C2256     Br2257   1.920       .  S
C2261      C2262   1.406       .  A
C2261      C2266   1.400       .  A
C2261      H2268   1.083       .  S
C2262      C2263   1.413       .  A
C2263      C2264   1.402       .  A
C2263     Br2270   1.919       .  S
C2264      C2265   1.403       .  A
C2264      H2269   1.083       .  S
C2265      C2266   1.409       .  A
C2266     Br2267   1.919       .  S
C2271      C2272   1.403       .  A
C2271      C2276   1.397       .  A
C2271      H2278   1.083       .  S
C2272      C2273   1.411       .  A
C2273      C2274   1.402       .  A
C2273     Br2280   1.920       .  S
C2274      C2275   1.406       .  A
C2274      H2279   1.083       .  S
C2275      C2276   1.411       .  A
C2276     Br2277   1.920       .  S
C2281      C2282   1.403       .  A
C2281      C2286   1.396       .  A
C2281      H2288   1.084       .  S
C2282      C2283   1.412       .  A
C2283      C2284   1.401       .  A
C2283     Br2290   1.920       .  S
C2284      C2285   1.404       .  A
C2284      H2289   1.083       .  S
C2285      C2286   1.411       .  A
C2286     Br2287   1.920       .  S
C2291      C2292   1.401   1_554  A
C2291      C2296   1.398       .  A
C2291      H2298   1.083       .  S
C2292      C2293   1.408       .  A
C2293      C2294   1.398       .  A
C2293     Br2300   1.920       .  S
C2294      C2295   1.404       .  A
C2294      H2299   1.083       .  S
C2295      C2296   1.410   1_556  A
C2296     Br2297   1.919       .  S
C2301      C2302   1.406       .  A
C2301      C2306   1.401       .  A
C2301      H2308   1.083       .  S
C2302      C2303   1.413       .  A
C2303      C2304   1.399       .  A
C2303     Br2310   1.920       .  S
C2304      C2305   1.403       .  A
C2304      H2309   1.083       .  S
C2305      C2306   1.410       .  A
C2306     Br2307   1.919       .  S
C2311      C2312   1.402       .  A
C2311      C2316   1.398       .  A
C2311      H2318   1.083       .  S
C2312      C2313   1.408       .  A
C2313      C2314   1.399       .  A
C2313     Br2320   1.919       .  S
C2314      C2315   1.404       .  A
C2314      H2319   1.083       .  S
C2315      C2316   1.412       .  A
C2316     Br2317   1.920       .  S
C2321      C2322   1.403       .  A
C2321      C2326   1.400       .  A
C2321      H2328   1.083       .  S
C2322      C2323   1.411       .  A
C2323      C2324   1.399       .  A
C2323     Br2330   1.920       .  S
C2324      C2325   1.405       .  A
C2324      H2329   1.083       .  S
C2325      C2326   1.412       .  A
C2326     Br2327   1.919       .  S
C2331      C2332   1.406       .  A
C2331      C2336   1.401       .  A
C2331      H2338   1.083       .  S
C2332      C2333   1.413       .  A
C2333      C2334   1.399       .  A
C2333     Br2340   1.919       .  S
C2334      C2335   1.403       .  A
C2334      H2339   1.083       .  S
C2335      C2336   1.411       .  A
C2336     Br2337   1.920       .  S
C2341      C2342   1.405   1_545  A
C2341      C2346   1.400       .  A
C2341      H2348   1.083       .  S
C2342      C2343   1.412       .  A
C2343      C2344   1.398       .  A
C2343     Br2350   1.920       .  S
C2344      C2345   1.403       .  A
C2344      H2349   1.083       .  S
C2345      C2346   1.410   1_565  A
C2346     Br2347   1.919       .  S
C2351      C2352   1.404       .  A
C2351      C2356   1.400       .  A
C2351      H2358   1.083       .  S
C2352      C2353   1.412       .  A
C2353      C2354   1.400       .  A
C2353     Br2360   1.920       .  S
C2354      C2355   1.404       .  A
C2354      H2359   1.083       .  S
C2355      C2356   1.411       .  A
C2356     Br2357   1.920       .  S
C2361      C2362   1.405       .  A
C2361      C2366   1.399       .  A
C2361      H2368   1.083       .  S
C2362      C2363   1.413       .  A
C2363      C2364   1.400       .  A
C2363     Br2370   1.919       .  S
C2364      C2365   1.403       .  A
C2364      H2369   1.083       .  S
C2365      C2366   1.409       .  A
C2366     Br2367   1.920       .  S
C2371      C2372   1.404       .  A
C2371      C2376   1.397       .  A
C2371      H2378   1.083       .  S
C2372      C2373   1.412       .  A
C2373      C2374   1.399       .  A
C2373     Br2380   1.920       .  S
C2374      C2375   1.402       .  A
C2374      H2379   1.083       .  S
C2375      C2376   1.410       .  A
C2376     Br2377   1.920       .  S
C2381      C2382   1.403       .  A
C2381      C2386   1.399       .  A
C2381      H2388   1.083       .  S
C2382      C2383   1.410       .  A
C2383      C2384   1.401       .  A
C2383     Br2390   1.919       .  S
C2384      C2385   1.405       .  A
C2384      H2389   1.083       .  S
C2385      C2386   1.413       .  A
C2386     Br2387   1.920       .  S
C2391      C2392   1.404       .  A
C2391      C2396   1.397       .  A
C2391      H2398   1.083   1_556  S
C2392      C2393   1.412       .  A
C2393      C2394   1.401       .  A
C2393     Br2400   1.919       .  S
C2394      C2395   1.404       .  A
C2394      H2399   1.083       .  S
C2395      C2396   1.409       .  A
C2396     Br2397   1.920   1_556  S
C2401      C2402   1.404       .  A
C2401      C2406   1.398       .  A
C2401      H2408   1.083       .  S
C2402      C2403   1.409       .  A
C2403      C2404   1.398       .  A
C2403     Br2410   1.920       .  S
C2404      C2405   1.405       .  A
C2404      H2409   1.083       .  S
C2405      C2406   1.411       .  A
C2406     Br2407   1.920       .  S
C2411      C2412   1.404       .  A
C2411      C2416   1.400       .  A
C2411      H2418   1.083       .  S
C2412      C2413   1.409       .  A
C2413      C2414   1.395       .  A
C2413     Br2420   1.920       .  S
C2414      C2415   1.403       .  A
C2414      H2419   1.083       .  S
C2415      C2416   1.413       .  A
C2416     Br2417   1.920       .  S
C2421      C2422   1.401       .  A
C2421      C2426   1.399       .  A
C2421      H2428   1.083       .  S
C2422      C2423   1.408       .  A
C2423      C2424   1.399       .  A
C2423     Br2430   1.919       .  S
C2424      C2425   1.406       .  A
C2424      H2429   1.083       .  S
C2425      C2426   1.413       .  A
C2426     Br2427   1.919       .  S
C2431      C2432   1.403       .  A
C2431      C2436   1.399       .  A
C2431      H2438   1.083       .  S
C2432      C2433   1.411       .  A
C2433      C2434   1.397       .  A
C2433     Br2440   1.920       .  S
C2434      C2435   1.403       .  A
C2434      H2439   1.083       .  S
C2435      C2436   1.413       .  A
C2436     Br2437   1.920       .  S
C2441      C2442   1.404       .  A
C2441      C2446   1.399       .  A
C2441      H2448   1.083       .  S
C2442      C2443   1.410       .  A
C2443      C2444   1.400       .  A
C2443     Br2450   1.919       .  S
C2444      C2445   1.405       .  A
C2444      H2449   1.083       .  S
C2445      C2446   1.412       .  A
C2446     Br2447   1.920       .  S
C2451      C2452   1.405       .  A
C2451      C2456   1.398       .  A
C2451      H2458   1.083       .  S
C2452      C2453   1.411       .  A
C2453      C2454   1.398       .  A
C2453     Br2460   1.919       .  S
C2454      C2455   1.403       .  A
C2454      H2459   1.083       .  S
C2455      C2456   1.409       .  A
C2456     Br2457   1.920       .  S
C2461      C2462   1.405       .  A
C2461      C2466   1.399       .  A
C2461      H2468   1.083       .  S
C2462      C2463   1.413       .  A
C2463      C2464   1.401       .  A
C2463     Br2470   1.919       .  S
C2464      C2465   1.403       .  A
C2464      H2469   1.083       .  S
C2465      C2466   1.410       .  A
C2466     Br2467   1.920       .  S
C2471      C2472   1.404       .  A
C2471      C2476   1.399       .  A
C2471      H2478   1.083       .  S
C2472      C2473   1.412       .  A
C2473      C2474   1.400       .  A
C2473     Br2480   1.920       .  S
C2474      C2475   1.403       .  A
C2474      H2479   1.083       .  S
C2475      C2476   1.411       .  A
C2476     Br2477   1.920       .  S
C2481      C2482   1.404       .  A
C2481      C2486   1.401       .  A
C2481      H2488   1.083       .  S
C2482      C2483   1.410       .  A
C2483      C2484   1.399       .  A
C2483     Br2490   1.919       .  S
C2484      C2485   1.403       .  A
C2484      H2489   1.083       .  S
C2485      C2486   1.411       .  A
C2486     Br2487   1.920       .  S
C2491      C2492   1.404       .  A
C2491      C2496   1.395       .  A
C2491      H2498   1.085       .  S
C2492      C2493   1.411       .  A
C2493      C2494   1.400       .  A
C2493     Br2500   1.919       .  S
C2494      C2495   1.403       .  A
C2494      H2499   1.085       .  S
C2495      C2496   1.410       .  A
C2496     Br2497   1.920       .  S
C2501      C2502   1.404       .  A
C2501      C2506   1.399       .  A
C2501      H2508   1.083       .  S
C2502      C2503   1.410       .  A
C2503      C2504   1.396       .  A
C2503     Br2510   1.920       .  S
C2504      C2505   1.403       .  A
C2504      H2509   1.083       .  S
C2505      C2506   1.411       .  A
C2506     Br2507   1.920       .  S
C2511      C2512   1.404       .  A
C2511      C2516   1.397       .  A
C2511      H2518   1.083       .  S
C2512      C2513   1.410       .  A
C2513      C2514   1.397       .  A
C2513     Br2520   1.920       .  S
C2514      C2515   1.403       .  A
C2514      H2519   1.083       .  S
C2515      C2516   1.408       .  A
C2516     Br2517   1.919       .  S
C2521      C2522   1.403       .  A
C2521      C2526   1.401       .  A
C2521      H2528   1.083       .  S
C2522      C2523   1.412       .  A
C2523      C2524   1.400       .  A
C2523     Br2530   1.920       .  S
C2524      C2525   1.404       .  A
C2524      H2529   1.083       .  S
C2525      C2526   1.413       .  A
C2526     Br2527   1.919       .  S
C2531      C2532   1.403       .  A
C2531      C2536   1.398       .  A
C2531      H2538   1.083       .  S
C2532      C2533   1.410       .  A
C2533      C2534   1.399       .  A
C2533     Br2540   1.920       .  S
C2534      C2535   1.404       .  A
C2534      H2539   1.083       .  S
C2535      C2536   1.411       .  A
C2536     Br2537   1.920       .  S
C2541      C2542   1.405       .  A
C2541      C2546   1.399       .  A
C2541      H2548   1.083       .  S
C2542      C2543   1.415   1_556  A
C2543      C2544   1.400       .  A
C2543     Br2550   1.920       .  S
C2544      C2545   1.402   1_554  A
C2544      H2549   1.083       .  S
C2545      C2546   1.411       .  A
C2546     Br2547   1.920       .  S
C2551      C2552   1.404       .  A
C2551      C2556   1.398       .  A
C2551      H2558   1.082       .  S
C2552      C2553   1.412       .  A
C2553      C2554   1.399       .  A
C2553     Br2560   1.920       .  S
C2554      C2555   1.404       .  A
C2554      H2559   1.083       .  S
C2555      C2556   1.410       .  A
C2556     Br2557   1.920       .  S
C2561      C2562   1.403       .  A
C2561      C2566   1.398       .  A
C2561      H2568   1.083       .  S
C2562      C2563   1.410       .  A
C2563      C2564   1.398       .  A
C2563     Br2570   1.920       .  S
C2564      C2565   1.403       .  A
C2564      H2569   1.083       .  S
C2565      C2566   1.410       .  A
C2566     Br2567   1.920       .  S
C2571      C2572   1.404       .  A
C2571      C2576   1.401       .  A
C2571      H2578   1.083       .  S
C2572      C2573   1.411       .  A
C2573      C2574   1.399       .  A
C2573     Br2580   1.919       .  S
C2574      C2575   1.403       .  A
C2574      H2579   1.083       .  S
C2575      C2576   1.410       .  A
C2576     Br2577   1.919       .  S
C2581      C2582   1.404       .  A
C2581      C2586   1.401       .  A
C2581      H2588   1.083       .  S
C2582      C2583   1.412       .  A
C2583      C2584   1.402       .  A
C2583     Br2590   1.920       .  S
C2584      C2585   1.405       .  A
C2584      H2589   1.083       .  S
C2585      C2586   1.414       .  A
C2586     Br2587   1.919       .  S
C2591      C2592   1.404       .  A
C2591      C2596   1.399       .  A
C2591      H2598   1.083       .  S
C2592      C2593   1.410       .  A
C2593      C2594   1.400       .  A
C2593     Br2600   1.919       .  S
C2594      C2595   1.403       .  A
C2594      H2599   1.083       .  S
C2595      C2596   1.410       .  A
C2596     Br2597   1.920       .  S
C2601      C2602   1.402       .  A
C2601      C2606   1.401       .  A
C2601      H2608   1.083       .  S
C2602      C2603   1.409       .  A
C2603      C2604   1.398       .  A
C2603     Br2610   1.920       .  S
C2604      C2605   1.404       .  A
C2604      H2609   1.083       .  S
C2605      C2606   1.413       .  A
C2606     Br2607   1.920       .  S
C2611      C2612   1.403       .  A
C2611      C2616   1.396       .  A
C2611      H2618   1.084       .  S
C2612      C2613   1.410       .  A
C2613      C2614   1.397       .  A
C2613     Br2620   1.919       .  S
C2614      C2615   1.403       .  A
C2614      H2619   1.084       .  S
C2615      C2616   1.409       .  A
C2616     Br2617   1.920       .  S
C2621      C2622   1.403       .  A
C2621      C2626   1.397       .  A
C2621      H2628   1.083       .  S
C2622      C2623   1.410       .  A
C2623      C2624   1.397       .  A
C2623     Br2630   1.920       .  S
C2624      C2625   1.403       .  A
C2624      H2629   1.083       .  S
C2625      C2626   1.411       .  A
C2626     Br2627   1.920       .  S
C2631      C2632   1.405   1_455  A
C2631      C2636   1.399       .  A
C2631      H2638   1.083       .  S
C2632      C2633   1.411       .  A
C2633      C2634   1.398       .  A
C2633     Br2640   1.920       .  S
C2634      C2635   1.405       .  A
C2634      H2639   1.083       .  S
C2635      C2636   1.413   1_655  A
C2636     Br2637   1.920       .  S
C2641      C2642   1.403       .  A
C2641      C2646   1.399       .  A
C2641      H2648   1.083       .  S
C2642      C2643   1.411       .  A
C2643      C2644   1.401       .  A
C2643     Br2650   1.920       .  S
C2644      C2645   1.405       .  A
C2644      H2649   1.083       .  S
C2645      C2646   1.411       .  A
C2646     Br2647   1.919       .  S
C2651      C2652   1.404       .  A
C2651      C2656   1.399       .  A
C2651      H2658   1.083       .  S
C2652      C2653   1.409       .  A
C2653      C2654   1.393       .  A
C2653     Br2660   1.920       .  S
C2654      C2655   1.403       .  A
C2654      H2659   1.083       .  S
C2655      C2656   1.410       .  A
C2656     Br2657   1.919       .  S
C2661      C2662   1.403       .  A
C2661      C2666   1.397       .  A
C2661      H2668   1.083       .  S
C2662      C2663   1.413       .  A
C2663      C2664   1.397       .  A
C2663     Br2670   1.921       .  S
C2664      C2665   1.402       .  A
C2664      H2669   1.083       .  S
C2665      C2666   1.409       .  A
C2666     Br2667   1.919       .  S
C2671      C2672   1.404   1_545  A
C2671      C2676   1.398       .  A
C2671      H2678   1.083       .  S
C2672      C2673   1.410       .  A
C2673      C2674   1.399       .  A
C2673     Br2680   1.920       .  S
C2674      C2675   1.405       .  A
C2674      H2679   1.083       .  S
C2675      C2676   1.412   1_565  A
C2676     Br2677   1.920       .  S
C2681      C2682   1.404       .  A
C2681      C2686   1.398       .  A
C2681      H2688   1.083       .  S
C2682      C2683   1.412       .  A
C2683      C2684   1.401       .  A
C2683     Br2690   1.919       .  S
C2684      C2685   1.403       .  A
C2684      H2689   1.083       .  S
C2685      C2686   1.410       .  A
C2686     Br2687   1.920       .  S
C2691      C2692   1.404       .  A
C2691      C2696   1.399       .  A
C2691      H2698   1.083       .  S
C2692      C2693   1.413       .  A
C2693      C2694   1.399       .  A
C2693     Br2700   1.920       .  S
C2694      C2695   1.403       .  A
C2694      H2699   1.083       .  S
C2695      C2696   1.411       .  A
C2696     Br2697   1.920       .  S
C2701      C2702   1.405       .  A
C2701      C2706   1.400       .  A
C2701      H2708   1.083       .  S
C2702      C2703   1.411       .  A
C2703      C2704   1.399       .  A
C2703     Br2710   1.919       .  S
C2704      C2705   1.403       .  A
C2704      H2709   1.083       .  S
C2705      C2706   1.410       .  A
C2706     Br2707   1.919       .  S
C2711      C2712   1.404       .  A
C2711      C2716   1.399       .  A
C2711      H2718   1.083       .  S
C2712      C2713   1.412       .  A
C2713      C2714   1.397       .  A
C2713     Br2720   1.920       .  S
C2714      C2715   1.401       .  A
C2714      H2719   1.083       .  S
C2715      C2716   1.410       .  A
C2716     Br2717   1.920       .  S
C2721      C2722   1.403       .  A
C2721      C2726   1.397       .  A
C2721      H2728   1.083       .  S
C2722      C2723   1.409       .  A
C2723      C2724   1.400       .  A
C2723     Br2730   1.919       .  S
C2724      C2725   1.405       .  A
C2724      H2729   1.083       .  S
C2725      C2726   1.412       .  A
C2726     Br2727   1.920       .  S
C2731      C2732   1.402       .  A
C2731      C2736   1.399       .  A
C2731      H2738   1.083       .  S
C2732      C2733   1.408       .  A
C2733      C2734   1.397       .  A
C2733     Br2740   1.919       .  S
C2734      C2735   1.404       .  A
C2734      H2739   1.083       .  S
C2735      C2736   1.413       .  A
C2736     Br2737   1.920       .  S
C2741      C2742   1.405       .  A
C2741      C2746   1.398       .  A
C2741      H2748   1.083       .  S
C2742      C2743   1.412       .  A
C2743      C2744   1.399       .  A
C2743     Br2750   1.919       .  S
C2744      C2745   1.403       .  A
C2744      H2749   1.084       .  S
C2745      C2746   1.408       .  A
C2746     Br2747   1.919       .  S
C2751      C2752   1.405       .  A
C2751      C2756   1.398       .  A
C2751      H2758   1.083       .  S
C2752      C2753   1.411       .  A
C2753      C2754   1.400       .  A
C2753     Br2760   1.919       .  S
C2754      C2755   1.404       .  A
C2754      H2759   1.083       .  S
C2755      C2756   1.410       .  A
C2756     Br2757   1.920       .  S
C2761      C2762   1.404       .  A
C2761      C2766   1.399       .  A
C2761      H2768   1.083       .  S
C2762      C2763   1.412       .  A
C2763      C2764   1.398       .  A
C2763     Br2770   1.920       .  S
C2764      C2765   1.403       .  A
C2764      H2769   1.083       .  S
C2765      C2766   1.411       .  A
C2766     Br2767   1.920       .  S
C2771      C2772   1.404       .  A
C2771      C2776   1.401       .  A
C2771      H2778   1.083       .  S
C2772      C2773   1.408       .  A
C2773      C2774   1.399       .  A
C2773     Br2780   1.919       .  S
C2774      C2775   1.406       .  A
C2774      H2779   1.083       .  S
C2775      C2776   1.414       .  A
C2776     Br2777   1.920       .  S
C2781      C2782   1.404       .  A
C2781      C2786   1.399       .  A
C2781      H2788   1.083       .  S
C2782      C2783   1.410       .  A
C2783      C2784   1.397       .  A
C2783     Br2790   1.921       .  S
C2784      C2785   1.404       .  A
C2784      H2789   1.083       .  S
C2785      C2786   1.410       .  A
C2786     Br2787   1.919       .  S
C2791      C2792   1.404       .  A
C2791      C2796   1.398       .  A
C2791      H2798   1.083       .  S
C2792      C2793   1.409       .  A
C2793      C2794   1.396       .  A
C2793     Br2800   1.920       .  S
C2794      C2795   1.403       .  A
C2794      H2799   1.083       .  S
C2795      C2796   1.409       .  A
C2796     Br2797   1.920       .  S
C2801      C2802   1.403       .  A
C2801      C2806   1.401       .  A
C2801      H2808   1.083       .  S
C2802      C2803   1.409       .  A
C2803      C2804   1.400       .  A
C2803     Br2810   1.919       .  S
C2804      C2805   1.405       .  A
C2804      H2809   1.083       .  S
C2805      C2806   1.412       .  A
C2806     Br2807   1.919       .  S
C2811      C2812   1.403       .  A
C2811      C2816   1.401       .  A
C2811      H2818   1.083       .  S
C2812      C2813   1.410       .  A
C2813      C2814   1.400       .  A
C2813     Br2820   1.919       .  S
C2814      C2815   1.406       .  A
C2814      H2819   1.083       .  S
C2815      C2816   1.414       .  A
C2816     Br2817   1.920       .  S
C2821      C2822   1.404       .  A
C2821      C2826   1.399       .  A
C2821      H2828   1.083       .  S
C2822      C2823   1.412       .  A
C2823      C2824   1.399       .  A
C2823     Br2830   1.920       .  S
C2824      C2825   1.404       .  A
C2824      H2829   1.083       .  S
C2825      C2826   1.411       .  A
C2826     Br2827   1.920       .  S
C2831      C2832   1.403       .  A
C2831      C2836   1.400       .  A
C2831      H2838   1.083       .  S
C2832      C2833   1.408       .  A
C2833      C2834   1.398       .  A
C2833     Br2840   1.919       .  S
C2834      C2835   1.406       .  A
C2834      H2839   1.083       .  S
C2835      C2836   1.413       .  A
C2836     Br2837   1.920       .  S
C2841      C2842   1.403   1_554  A
C2841      C2846   1.398       .  A
C2841      H2848   1.085       .  S
C2842      C2843   1.411       .  A
C2843      C2844   1.399       .  A
C2843     Br2850   1.920       .  S
C2844      C2845   1.404       .  A
C2844      H2849   1.085       .  S
C2845      C2846   1.413   1_556  A
C2846     Br2847   1.920       .  S
C2851      C2852   1.402       .  A
C2851      C2856   1.397       .  A
C2851      H2858   1.083       .  S
C2852      C2853   1.410       .  A
C2853      C2854   1.399       .  A
C2853     Br2860   1.919       .  S
C2854      C2855   1.404       .  A
C2854      H2859   1.083       .  S
C2855      C2856   1.411       .  A
C2856     Br2857   1.920       .  S
C2861      C2862   1.405       .  A
C2861      C2866   1.398       .  A
C2861      H2868   1.083       .  S
C2862      C2863   1.411       .  A
C2863      C2864   1.401       .  A
C2863     Br2870   1.919       .  S
C2864      C2865   1.404       .  A
C2864      H2869   1.083       .  S
C2865      C2866   1.409       .  A
C2866     Br2867   1.920       .  S
C2871      C2872   1.405       .  A
C2871      C2876   1.400       .  A
C2871      H2878   1.083       .  S
C2872      C2873   1.413       .  A
C2873      C2874   1.399       .  A
C2873     Br2880   1.920       .  S
C2874      C2875   1.402       .  A
C2874      H2879   1.083       .  S
C2875      C2876   1.409       .  A
C2876     Br2877   1.920       .  S
C2881      C2882   1.405       .  A
C2881      C2886   1.400       .  A
C2881      H2888   1.083       .  S
C2882      C2883   1.413       .  A
C2883      C2884   1.401       .  A
C2883     Br2890   1.919       .  S
C2884      C2885   1.404       .  A
C2884      H2889   1.082       .  S
C2885      C2886   1.412       .  A
C2886     Br2887   1.920       .  S
C2891      C2892   1.403       .  A
C2891      C2896   1.398       .  A
C2891      H2898   1.083       .  S
C2892      C2893   1.410       .  A
C2893      C2894   1.400       .  A
C2893     Br2900   1.919       .  S
C2894      C2895   1.405       .  A
C2894      H2899   1.083       .  S
C2895      C2896   1.411       .  A
C2896     Br2897   1.920       .  S
C2901      C2902   1.403       .  A
C2901      C2906   1.400       .  A
C2901      H2908   1.083       .  S
C2902      C2903   1.410       .  A
C2903      C2904   1.399       .  A
C2903     Br2910   1.920       .  S
C2904      C2905   1.405       .  A
C2904      H2909   1.083       .  S
C2905      C2906   1.412       .  A
C2906     Br2907   1.920       .  S
C2911      C2912   1.404       .  A
C2911      C2916   1.400       .  A
C2911      H2918   1.083       .  S
C2912      C2913   1.410       .  A
C2913      C2914   1.399       .  A
C2913     Br2920   1.920       .  S
C2914      C2915   1.405       .  A
C2914      H2919   1.083       .  S
C2915      C2916   1.412       .  A
C2916     Br2917   1.919       .  S
C2921      C2922   1.402       .  A
C2921      C2926   1.398       .  A
C2921      H2928   1.084       .  S
C2922      C2923   1.410       .  A
C2923      C2924   1.399       .  A
C2923     Br2930   1.920       .  S
C2924      C2925   1.404       .  A
C2924      H2929   1.083       .  S
C2925      C2926   1.412       .  A
C2926     Br2927   1.920       .  S
C2931      C2932   1.404       .  A
C2931      C2936   1.399       .  A
C2931      H2938   1.084       .  S
C2932      C2933   1.409       .  A
C2933      C2934   1.399       .  A
C2933     Br2940   1.919       .  S
C2934      C2935   1.404       .  A
C2934      H2939   1.084       .  S
C2935      C2936   1.410       .  A
C2936     Br2937   1.919       .  S
C2941      C2942   1.404       .  A
C2941      C2946   1.401       .  A
C2941      H2948   1.083       .  S
C2942      C2943   1.412       .  A
C2943      C2944   1.399       .  A
C2943     Br2950   1.919       .  S
C2944      C2945   1.404       .  A
C2944      H2949   1.083       .  S
C2945      C2946   1.412       .  A
C2946     Br2947   1.920       .  S
C2951      C2952   1.405       .  A
C2951      C2956   1.399       .  A
C2951      H2958   1.083       .  S
C2952      C2953   1.413       .  A
C2953      C2954   1.400       .  A
C2953     Br2960   1.920       .  S
C2954      C2955   1.403       .  A
C2954      H2959   1.083       .  S
C2955      C2956   1.409       .  A
C2956     Br2957   1.919       .  S
C2961      C2962   1.402       .  A
C2961      C2966   1.400       .  A
C2961      H2968   1.083       .  S
C2962      C2963   1.410       .  A
C2963      C2964   1.399       .  A
C2963     Br2970   1.920       .  S
C2964      C2965   1.405       .  A
C2964      H2969   1.083       .  S
C2965      C2966   1.416       .  A
C2966     Br2967   1.920       .  S
C2971      C2972   1.403       .  A
C2971      C2976   1.400       .  A
C2971      H2978   1.083       .  S
C2972      C2973   1.410       .  A
C2973      C2974   1.398       .  A
C2973     Br2980   1.920       .  S
C2974      C2975   1.402       .  A
C2974      H2979   1.083       .  S
C2975      C2976   1.411       .  A
C2976     Br2977   1.920       .  S
C2981      C2982   1.406       .  A
C2981      C2986   1.402       .  A
C2981      H2988   1.083       .  S
C2982      C2983   1.414       .  A
C2983      C2984   1.398       .  A
C2983     Br2990   1.920       .  S
C2984      C2985   1.402       .  A
C2984      H2989   1.083       .  S
C2985      C2986   1.410       .  A
C2986     Br2987   1.919       .  S
C2991      C2992   1.404       .  A
C2991      C2996   1.401       .  A
C2991      H2998   1.083       .  S
C2992      C2993   1.412       .  A
C2993      C2994   1.397       .  A
C2993     Br3000   1.921       .  S
C2994      C2995   1.402       .  A
C2994      H2999   1.083       .  S
C2995      C2996   1.411       .  A
C2996     Br2997   1.919       .  S
C3001      C3002   1.404       .  A
C3001      C3006   1.400       .  A
C3001      H3008   1.083       .  S
C3002      C3003   1.409       .  A
C3003      C3004   1.397       .  A
C3003     Br3010   1.920       .  S
C3004      C3005   1.404       .  A
C3004      H3009   1.082       .  S
C3005      C3006   1.412       .  A
C3006     Br3007   1.919       .  S
C3011      C3012   1.404       .  A
C3011      C3016   1.400       .  A
C3011      H3018   1.083       .  S
C3012      C3013   1.411       .  A
C3013      C3014   1.400       .  A
C3013     Br3020   1.919       .  S
C3014      C3015   1.405       .  A
C3014      H3019   1.083       .  S
C3015      C3016   1.413       .  A
C3016     Br3017   1.920       .  S
C3021      C3022   1.405       .  A
C3021      C3026   1.398       .  A
C3021      H3028   1.083       .  S
C3022      C3023   1.410       .  A
C3023      C3024   1.398       .  A
C3023     Br3030   1.919       .  S
C3024      C3025   1.403       .  A
C3024      H3029   1.083       .  S
C3025      C3026   1.408       .  A
C3026     Br3027   1.919       .  S
C3031      C3032   1.406       .  A
C3031      C3036   1.398       .  A
C3031      H3038   1.083       .  S
C3032      C3033   1.413       .  A
C3033      C3034   1.400       .  A
C3033     Br3040   1.919       .  S
C3034      C3035   1.403       .  A
C3034      H3039   1.083       .  S
C3035      C3036   1.408       .  A
C3036     Br3037   1.920       .  S
C3041      C3042   1.403       .  A
C3041      C3046   1.399       .  A
C3041      H3048   1.083       .  S
C3042      C3043   1.410       .  A
C3043      C3044   1.397       .  A
C3043     Br3050   1.921       .  S
C3044      C3045   1.403       .  A
C3044      H3049   1.083       .  S
C3045      C3046   1.413       .  A
C3046     Br3047   1.920       .  S
C3051      C3052   1.403       .  A
C3051      C3056   1.399       .  A
C3051      H3058   1.083       .  S
C3052      C3053   1.412       .  A
C3053      C3054   1.399       .  A
C3053     Br3060   1.920       .  S
C3054      C3055   1.403       .  A
C3054      H3059   1.083       .  S
C3055      C3056   1.412       .  A
C3056     Br3057   1.920       .  S
C3061      C3062   1.407       .  A
C3061      C3066   1.401       .  A
C3061      H3068   1.083       .  S
C3062      C3063   1.413       .  A
C3063      C3064   1.399       .  A
C3063     Br3070   1.919       .  S
C3064      C3065   1.403       .  A
C3064      H3069   1.083       .  S
C3065      C3066   1.410       .  A
C3066     Br3067   1.919       .  S
C3071      C3072   1.405       .  A
C3071      C3076   1.399       .  A
C3071      H3078   1.083       .  S
C3072      C3073   1.411       .  A
C3073      C3074   1.398       .  A
C3073     Br3080   1.920       .  S
C3074      C3075   1.404       .  A
C3074      H3079   1.083       .  S
C3075      C3076   1.410       .  A
C3076     Br3077   1.919       .  S
C3081      C3082   1.404       .  A
C3081      C3086   1.400       .  A
C3081      H3088   1.083       .  S
C3082      C3083   1.414       .  A
C3083      C3084   1.398       .  A
C3083     Br3090   1.921       .  S
C3084      C3085   1.401       .  A
C3084      H3089   1.083       .  S
C3085      C3086   1.411       .  A
C3086     Br3087   1.920       .  S
C3091      C3092   1.403       .  A
C3091      C3096   1.399       .  A
C3091      H3098   1.083       .  S
C3092      C3093   1.408       .  A
C3093      C3094   1.397       .  A
C3093     Br3100   1.920       .  S
C3094      C3095   1.406       .  A
C3094      H3099   1.083       .  S
C3095      C3096   1.412       .  A
C3096     Br3097   1.919       .  S
C3101      C3102   1.404       .  A
C3101      C3106   1.398       .  A
C3101      H3108   1.083       .  S
C3102      C3103   1.411       .  A
C3103      C3104   1.398       .  A
C3103     Br3110   1.919       .  S
C3104      C3105   1.403       .  A
C3104      H3109   1.083       .  S
C3105      C3106   1.412       .  A
C3106     Br3107   1.920       .  S
C3111      C3112   1.402       .  A
C3111      C3116   1.399       .  A
C3111      H3118   1.083       .  S
C3112      C3113   1.409       .  A
C3113      C3114   1.397       .  A
C3113     Br3120   1.921       .  S
C3114      C3115   1.405       .  A
C3114      H3119   1.083       .  S
C3115      C3116   1.414       .  A
C3116     Br3117   1.920       .  S
