geometry optimzed in LAMMPS
_audit_creation_date              2020-11-30 
_audit_creation_method            'lammps2cif' 
_symmetry_space_group_name_H-M    'P1' 
_symmetry_Int_Tables_number       1 
_symmetry_cell_setting            triclinic 
loop_ 
_symmetry_equiv_pos_as_xyz 
  x,y,z 
_cell_length_a                    37.18886184801883 
_cell_length_b                    36.011874676234605 
_cell_length_c                    36.34750071308318 
_cell_angle_alpha                 90.14624569975807 
_cell_angle_beta                  90.00984676649557 
_cell_angle_gamma                 90.13919723748484 
loop_ 
_atom_site_label 
_atom_site_type_symbol 
_atom_site_fract_x 
_atom_site_fract_y 
_atom_site_fract_z 
_atom_site_charge 
O1          O  0.29379213  0.21261312  0.37032593    -0.72370
O2          O  0.20184986  0.28985162  0.36964603    -0.73350
O3          O  0.20916361  0.20339998  0.36926218    -0.61960
O4          O  0.28445236  0.29834488  0.37037228    -0.70380
O5          O  0.29441283  0.27195202  0.31896432    -0.69930
O6          O  0.20268910  0.22798102  0.31651602    -0.61180
O7          O  0.22684693  0.29707969  0.31738032    -0.73690
O8          O  0.26992453  0.20249110  0.31820488    -0.72470
Cu9        Cu  0.24722424  0.25090694  0.37484906     1.04560
Cu10       Cu  0.24847307  0.24991394  0.31707908     1.04330
C11         C  0.29429467  0.19385802  0.33985772     0.93830
C12         C  0.20245925  0.30725768  0.33856927     0.92970
C13         C  0.19256897  0.20319766  0.33788294     0.85120
C14         C  0.30301952  0.29743574  0.34029454     0.91390
O15         O  0.32798190  0.27319787  0.19374896    -0.72370
O16         O  0.32536206  0.22695691  0.28642548    -0.73350
O17         O  0.32623791  0.29626702  0.26344544    -0.61960
O18         O  0.32727868  0.20291038  0.21740161    -0.70380
O19         O  0.37843267  0.21218283  0.19279732    -0.69930
O20         O  0.37761915  0.28871354  0.28852103    -0.61180
O21         O  0.37710286  0.20276207  0.27954794    -0.73690
O22         O  0.37877054  0.29883362  0.20318815    -0.72470
Cu23       Cu  0.32616314  0.24987257  0.24018476     1.04560
Cu24       Cu  0.38282878  0.25050764  0.24105700     1.04330
C25         C  0.34873074  0.29885908  0.18520292     0.93830
C26         C  0.34642599  0.20233140  0.29657917     0.92970
C27         C  0.34703443  0.30574688  0.28856050     0.85120
C28         C  0.34815986  0.19431110  0.19212322     0.91390
O29         O  0.22958593  0.33158465  0.19254448    -0.72370
O30         O  0.27160495  0.32957851  0.28713648    -0.73350
O31         O  0.20453938  0.33063924  0.26121667    -0.61960
O32         O  0.29687477  0.33039620  0.21897543    -0.70380
O33         O  0.28754295  0.38258236  0.19364571    -0.69930
O34         O  0.21423278  0.38219871  0.28827889    -0.61180
O35         O  0.29690608  0.38206451  0.27959003    -0.73690
O36         O  0.20413175  0.38304393  0.20371142    -0.72350
Cu37       Cu  0.25062726  0.32969051  0.23996155     1.04560
Cu38       Cu  0.25082568  0.38757062  0.24131089     1.04330
C39         C  0.20462203  0.35283106  0.18434650     0.93830
C40         C  0.29628496  0.35073872  0.29700037     0.92970
C41         C  0.19579108  0.35176400  0.28670837     0.85120
C42         C  0.30558863  0.35186744  0.19389192     0.91390
O43         O  0.12098344  0.21459291  0.28526877    -0.72370
O44         O  0.12226170  0.29146742  0.19126487    -0.73350
O45         O  0.12132342  0.20427014  0.19963524    -0.61960
O46         O  0.12152418  0.30025920  0.27608951    -0.70380
O47         O  0.17204446  0.27376666  0.28482095    -0.69930
O48         O  0.17263927  0.22918238  0.19124899    -0.61180
O49         O  0.17368835  0.29834279  0.21630108    -0.73690
O50         O  0.17128867  0.20387682  0.25974510    -0.72470
Cu51       Cu  0.11661465  0.25262502  0.23792246     1.04560
Cu52       Cu  0.17307902  0.25130481  0.23807214     1.04330
C53         C  0.15035539  0.19536120  0.28486713     0.93830
C54         C  0.15291580  0.30862711  0.19162699     0.92970
C55         C  0.15176427  0.20378373  0.18229363     0.85120
C56         C  0.15163145  0.29952082  0.29384982     0.91390
O57         O  0.21268158  0.11995947  0.19117655    -0.72370
O58         O  0.28592098  0.11803232  0.28711367    -0.73350
O59         O  0.20186989  0.11877561  0.27629820    -0.61960
O60         O  0.29606079  0.11892608  0.20053636    -0.70380
O61         O  0.27211542  0.17177250  0.19234266    -0.69930
O62         O  0.22627524  0.17158599  0.28504074    -0.61180
O63         O  0.29519929  0.17048783  0.26206716    -0.73690
O64         O  0.20466744  0.17298280  0.21594380    -0.72470
Cu65       Cu  0.24914160  0.11396479  0.23873652     1.04560
Cu66       Cu  0.24964508  0.17233645  0.23894217     1.04330
C67         C  0.19532464  0.15112246  0.19127728     0.93830
C68         C  0.30356423  0.14905552  0.28745603     0.92970
C69         C  0.20140022  0.15015960  0.29374887     0.85120
C70         C  0.29642539  0.15012491  0.18276585     0.91390
O71         O  0.29575141  0.22855456  0.16173573    -0.72370
O72         O  0.20525879  0.27463825  0.16088471    -0.73350
O73         O  0.22813319  0.20398203  0.15989176    -0.61960
O74         O  0.27322619  0.29760911  0.16279109    -0.70380
O75         O  0.29640133  0.29106353  0.10959494    -0.69930
O76         O  0.20357296  0.21328690  0.10800672    -0.61180
O77         O  0.21310779  0.30003918  0.10856064    -0.73690
O78         O  0.28702578  0.20421527  0.10908899    -0.72470
Cu79       Cu  0.25046491  0.25120365  0.16191000     1.04560
Cu80       Cu  0.25012311  0.25215937  0.10392065     1.04330
C81         C  0.30474371  0.20383193  0.13980957     0.93830
C82         C  0.19625632  0.30006072  0.13965677     0.92970
C83         C  0.20348139  0.19482007  0.13855057     0.85120
C84         C  0.29715969  0.30786560  0.14118567     0.91390
C85         C  0.32620742  0.32840786  0.31957884    -0.01910
C86         C  0.42378505  0.42156963  0.40873963    -0.01910
C87         C  0.32523958  0.17079242  0.31912118    -0.01910
C88         C  0.42475422  0.07918307  0.40918872    -0.01910
C89         C  0.17262255  0.33041381  0.31681865    -0.01910
C90         C  0.07736967  0.41956294  0.41151054    -0.01910
C91         C  0.32792035  0.33048906  0.16281452    -0.01910
C92         C  0.42206160  0.41948632  0.06550364    -0.01910
C93         C  0.17049952  0.17184862  0.31590423    -0.01910
C94         C  0.07949378  0.07812930  0.41243762    -0.01910
C95         C  0.17425548  0.33152284  0.16103130    -0.01910
C96         C  0.07572648  0.41845159  0.06729761    -0.01910
C97         C  0.32724923  0.17214951  0.16035088    -0.01910
C98         C  0.42271352  0.07782320  0.06795944    -0.01910
C99         C  0.17269341  0.17207315  0.16023223    -0.01910
C100        C  0.07726962  0.07790299  0.06810959    -0.01910
O101        O  0.12900561  0.03538592  0.44308228    -0.72370
O102        O  0.12772228  0.45850749  0.03706845    -0.73350
O103        O  0.12846560  0.44971664  0.45224378    -0.61960
O104        O  0.12864779  0.04570660  0.02871676    -0.70380
O105        O  0.07732995  0.02079450  0.03709130    -0.69930
O106        O  0.07794619  0.47620963  0.44350899    -0.61180
O107        O  0.07629768  0.45163177  0.01202809    -0.73690
O108        O  0.07869586  0.04610137  0.46859643    -0.72470
Cu109      Cu  0.13337255  0.49735049  0.49041190     1.04560
Cu110      Cu  0.07690841  0.49867030  0.49025837     1.04330
C111        C  0.09963353  0.05461749  0.44347838     0.93830
C112        C  0.09706835  0.44134749  0.03670374     0.92970
C113        C  0.09835958  0.45045543  0.43448124     0.85120
C114        C  0.09820328  0.04619284  0.04605181     0.91390
O115        O  0.47785385  0.07820334  0.03597908    -0.72370
O116        O  0.02371221  0.07838983  0.44329060    -0.73350
O117        O  0.04530625  0.07699307  0.01239126    -0.61960
O118        O  0.45478394  0.07948738  0.46624900    -0.70380
O119        O  0.46406565  0.13194348  0.44120503    -0.69930
O120        O  0.03728492  0.13001540  0.03715790    -0.61180
O121        O  0.04811429  0.13120098  0.45203832    -0.73690
O122        O  0.45390729  0.13104819  0.02778004    -0.72470
Cu123      Cu  0.00033321  0.07763923  0.48938389     1.04560
Cu124      Cu  0.50083473  0.13601063  0.48959009     1.04330
C125        C  0.45354079  0.09984959  0.04555083     0.93830
C126        C  0.04858827  0.09981708  0.43458754     0.92970
C127        C  0.05464333  0.09885322  0.03706015     0.85120
C128        C  0.44642346  0.10091974  0.44085858     0.91390
O129        O  0.45357756  0.45891082  0.11872579    -0.72370
O130        O  0.04638204  0.03668676  0.12032823    -0.73350
O131        O  0.46292859  0.04575623  0.11922769    -0.61960
O132        O  0.03687108  0.44993521  0.11976586    -0.70380
O133        O  0.04472231  0.47533572  0.06744184    -0.69930
O134        O  0.45421456  0.02141991  0.06657749    -0.61180
O135        O  0.02183051  0.04599377  0.06843939    -0.73690
O136        O  0.47675572  0.45236576  0.06553097    -0.72470
Cu137      Cu  0.49985534  0.49781484  0.12440383     1.04560
Cu138      Cu  0.49951650  0.49877094  0.06641439     1.04330
C139        C  0.45282100  0.44210916  0.08713478     0.93830
C140        C  0.04647845  0.05515517  0.08978534     0.92970
C141        C  0.44521669  0.04614060  0.08850336     0.85120
C142        C  0.05372408  0.44991360  0.08867060     0.91390
O143        O  0.42462810  0.02301893  0.44188435    -0.72370
O144        O  0.42200309  0.47677765  0.03456936    -0.73350
O145        O  0.42375187  0.45371069  0.46487289    -0.61960
O146        O  0.42269460  0.04706545  0.01090744    -0.70380
O147        O  0.37153700  0.03778922  0.03550208    -0.69930
O148        O  0.37237169  0.46126371  0.43979461    -0.61180
O149        O  0.37121433  0.45114320  0.02512712    -0.73690
O150        O  0.37288451  0.04721107  0.44875091    -0.72470
Cu151      Cu  0.42382494  0.50010432  0.48813457     1.04560
Cu152      Cu  0.36715889  0.49946938  0.48725817     1.04330
C153        C  0.40356492  0.04764317  0.43172623     0.93830
C154        C  0.40125315  0.45111690  0.04311406     0.92970
C155        C  0.40295654  0.44423063  0.43975684     0.85120
C156        C  0.40180883  0.05566248  0.03618248     0.91390
O157        O  0.45557894  0.47802579  0.40935589    -0.72370
O158        O  0.04730504  0.02199670  0.41181978    -0.73350
O159        O  0.48007023  0.04748688  0.41011404    -0.61960
O160        O  0.02314534  0.45289763  0.41094585    -0.70380
O161        O  0.04814563  0.46012565  0.35868172    -0.69930
O162        O  0.45621204  0.03736377  0.35798894    -0.61180
O163        O  0.04084109  0.04657706  0.35907174    -0.73690
O164        O  0.46554323  0.45163287  0.35794884    -0.72470
Cu165      Cu  0.50151881  0.50006338  0.41124586     1.04560
Cu166      Cu  0.50277219  0.49907080  0.35347584     1.04330
C167        C  0.44697400  0.45254185  0.38802522     0.93830
C168        C  0.05742915  0.04677985  0.39045473     0.92970
C169        C  0.45570351  0.05611916  0.38845687     0.85120
C170        C  0.04753430  0.44271958  0.38975840     0.91390
O171        O  0.03575780  0.36777749  0.44004672    -0.72370
O172        O  0.46244087  0.36739291  0.03467478    -0.73350
O173        O  0.45308400  0.36791232  0.44872944    -0.61960
O174        O  0.04585312  0.36693081  0.02461486    -0.70380
O175        O  0.02039785  0.41838968  0.03578078    -0.69930
O176        O  0.47838529  0.42039866  0.44118570    -0.61180
O177        O  0.45311047  0.41957905  0.00934459    -0.73690
O178        O  0.04544894  0.41933684  0.46711009    -0.72470
Cu179      Cu  0.49916160  0.36240512  0.48701197     1.04560
Cu180      Cu  0.49935970  0.42028519  0.48836207     1.04330
C181        C  0.05419915  0.39821234  0.44161885     0.93830
C182        C  0.44439511  0.39810780  0.03442753     0.92970
C183        C  0.45370609  0.39923849  0.43131974     0.85120
C184        C  0.04536147  0.39714341  0.04398012     0.91390
C185        C  0.13993923  0.10993363  0.14593453     0.24170
C186        C  0.14785579  0.14737676  0.13688287    -0.23930
C187        C  0.13130932  0.16218248  0.10543255     0.19080
C188        C  0.11001835  0.14004438  0.08241244     0.24120
C189        C  0.10210274  0.10260065  0.09146297    -0.23880
C190        C  0.11864689  0.08779566  0.12291515     0.19020
F191        F  0.11444533  0.05144448  0.13168128    -0.13840
F192        F  0.15055786  0.09452252  0.17808242    -0.16200
F193        F  0.09940104  0.15545634  0.05026460    -0.16200
F194        F  0.13550830  0.19853441  0.09666817    -0.13840
C195        C  0.35894166  0.15604238  0.09836845     0.24170
C196        C  0.35205308  0.14828189  0.13599306    -0.23930
C197        C  0.36950436  0.11741599  0.15139791     0.19080
C198        C  0.39101482  0.09392717  0.12993891     0.24120
C199        C  0.39790576  0.10168894  0.09231509    -0.23880
C200        C  0.38045432  0.13255472  0.07690988     0.19020
F201        F  0.38403190  0.14026127  0.04056028    -0.13840
F202        F  0.34686821  0.18728839  0.08191478    -0.16200
F203        F  0.40308364  0.06267878  0.14639163    -0.16200
F204        F  0.36592896  0.10971023  0.18774787    -0.13840
C205        C  0.12838099  0.41341910  0.11106304     0.24170
C206        C  0.10017418  0.39544620  0.09221960    -0.23930
C207        C  0.09663349  0.35660601  0.09663086     0.19080
C208        C  0.12159914  0.33655542  0.11726795     0.24120
C209        C  0.14980644  0.35452828  0.13611071    -0.23880
C210        C  0.15334705  0.39336847  0.13169940     0.19020
F211        F  0.18145034  0.41260433  0.14581362    -0.13840
F212        F  0.13200777  0.45092054  0.10962303    -0.16200
F213        F  0.11797199  0.29905404  0.11870870    -0.16200
F214        F  0.06853067  0.33737023  0.08251548    -0.13840
C215        C  0.14065734  0.10850051  0.39488040     0.24170
C216        C  0.10338163  0.10306834  0.38843732    -0.23930
C217        C  0.08812899  0.12105869  0.35795945     0.19080
C218        C  0.10933722  0.14147731  0.33346360     0.24120
C219        C  0.14661278  0.14691044  0.33990685    -0.23880
C220        C  0.16186555  0.12892047  0.37038508     0.19020
F221        F  0.19777252  0.13105533  0.37679949    -0.13840
F222        F  0.15713823  0.09607715  0.42566183    -0.16200
F223        F  0.09285657  0.15389681  0.30268047    -0.16200
F224        F  0.05222198  0.11892417  0.35154496    -0.13840
C225        C  0.35919345  0.39221189  0.14452786     0.24170
C226        C  0.35265587  0.35393616  0.13839857    -0.23930
C227        C  0.36986497  0.33703734  0.10825677     0.19080
C228        C  0.39078687  0.35776397  0.08378872     0.24120
C229        C  0.39732452  0.39603962  0.08991819    -0.23880
C230        C  0.38011486  0.41293857  0.12005952     0.19020
F231        F  0.38339493  0.45000956  0.12609376    -0.13840
F232        F  0.34726023  0.41001651  0.17498963    -0.16200
F233        F  0.40272104  0.33995942  0.05332728    -0.16200
F234        F  0.36658449  0.29996644  0.10222229    -0.13840
C235        C  0.10843623  0.35785944  0.39410632     0.24170
C236        C  0.10220658  0.39605037  0.38766227    -0.23930
C237        C  0.12023756  0.41290861  0.35809800     0.19080
C238        C  0.14155725  0.39211764  0.33422401     0.24120
C239        C  0.14778677  0.35392665  0.34066789    -0.23880
C240        C  0.12975639  0.33706853  0.37023262     0.19020
F241        F  0.13249521  0.29998896  0.37620432    -0.13840
F242        F  0.09597520  0.34024824  0.42441030    -0.16200
F243        F  0.15401776  0.40972893  0.30391988    -0.16200
F244        F  0.11749943  0.44998830  0.35212672    -0.13840
C245        C  0.34531600  0.14125757  0.38118863     0.24170
C246        C  0.34988576  0.14615581  0.34280137    -0.23930
C247        C  0.37947716  0.12843182  0.32621171     0.19080
C248        C  0.40467908  0.10871693  0.34711975     0.24120
C249        C  0.40010958  0.10381975  0.38550718    -0.23880
C250        C  0.37051831  0.12154385  0.40209664     0.19020
F251        F  0.36565018  0.11980805  0.43906843    -0.13840
F252        F  0.31584473  0.15376905  0.39911491    -0.16200
F253        F  0.43414870  0.09620156  0.32919330    -0.16200
F254        F  0.38434504  0.13016768  0.28923992    -0.13840
C255        C  0.38032182  0.36798630  0.40149961     0.24170
C256        C  0.39857976  0.39794483  0.38516892    -0.23930
C257        C  0.39186686  0.40527602  0.34756018     0.19080
C258        C  0.36967105  0.38199148  0.32681827     0.24120
C259        C  0.35141341  0.35203265  0.34314896    -0.23880
C260        C  0.35812690  0.34470125  0.38075757     0.19020
F261        F  0.34518597  0.31408083  0.39780905    -0.13840
F262        F  0.38362645  0.36109737  0.43803918    -0.16200
F263        F  0.36636524  0.38888107  0.29027894    -0.16200
F264        F  0.40480937  0.43589575  0.33050867    -0.13840
O265        O  0.29379213  0.21261311  0.87032593    -0.72370
O266        O  0.20184986  0.28985161  0.86964603    -0.73350
O267        O  0.20916361  0.20339997  0.86926218    -0.61960
O268        O  0.28445236  0.29834487  0.87037228    -0.70380
O269        O  0.29441284  0.27195202  0.81896432    -0.69930
O270        O  0.20268911  0.22798102  0.81651602    -0.61180
O271        O  0.22684693  0.29707968  0.81738032    -0.73690
O272        O  0.26992453  0.20249109  0.81820487    -0.72470
Cu273      Cu  0.24722424  0.25090693  0.87484906     1.04560
Cu274      Cu  0.24847308  0.24991394  0.81707908     1.04330
C275        C  0.29429467  0.19385801  0.83985772     0.93830
C276        C  0.20245925  0.30725767  0.83856927     0.92970
C277        C  0.19256897  0.20319766  0.83788293     0.85120
C278        C  0.30301952  0.29743574  0.84029454     0.91390
O279        O  0.32798190  0.27319787  0.69374896    -0.72370
O280        O  0.32536206  0.22695690  0.78642548    -0.73350
O281        O  0.32623791  0.29626701  0.76344544    -0.61960
O282        O  0.32727868  0.20291038  0.71740161    -0.70380
O283        O  0.37843267  0.21218283  0.69279731    -0.69930
O284        O  0.37761915  0.28871353  0.78852103    -0.61180
O285        O  0.37710286  0.20276206  0.77954793    -0.73690
O286        O  0.37877054  0.29883362  0.70318815    -0.72470
Cu287      Cu  0.32616314  0.24987257  0.74018476     1.04560
Cu288      Cu  0.38282878  0.25050764  0.74105700     1.04330
C289        C  0.34873074  0.29885908  0.68520292     0.93830
C290        C  0.34642599  0.20233139  0.79657916     0.92970
C291        C  0.34703444  0.30574688  0.78856050     0.85120
C292        C  0.34815986  0.19431110  0.69212322     0.91390
O293        O  0.22958593  0.33158466  0.69254448    -0.72370
O294        O  0.27160495  0.32957851  0.78713648    -0.73350
O295        O  0.20453938  0.33063923  0.76121667    -0.61960
O296        O  0.29687477  0.33039620  0.71897543    -0.70380
O297        O  0.28754295  0.38258237  0.69364572    -0.69930
O298        O  0.21423278  0.38219871  0.78827889    -0.61180
O299        O  0.29690609  0.38206450  0.77959004    -0.73690
O300        O  0.20413175  0.38304393  0.70371143    -0.72350
Cu301      Cu  0.25062727  0.32969051  0.73996155     1.04560
Cu302      Cu  0.25082568  0.38757062  0.74131089     1.04330
C303        C  0.20462203  0.35283106  0.68434650     0.93830
C304        C  0.29628497  0.35073872  0.79700038     0.92970
C305        C  0.19579109  0.35176400  0.78670838     0.85120
C306        C  0.30558863  0.35186744  0.69389193     0.91390
O307        O  0.12098344  0.21459291  0.78526877    -0.72370
O308        O  0.12226170  0.29146743  0.69126488    -0.73350
O309        O  0.12132342  0.20427015  0.69963524    -0.61960
O310        O  0.12152419  0.30025920  0.77608951    -0.70380
O311        O  0.17204446  0.27376665  0.78482095    -0.69930
O312        O  0.17263927  0.22918238  0.69124899    -0.61180
O313        O  0.17368835  0.29834279  0.71630108    -0.73690
O314        O  0.17128867  0.20387682  0.75974509    -0.72470
Cu315      Cu  0.11661465  0.25262503  0.73792246     1.04560
Cu316      Cu  0.17307902  0.25130482  0.73807214     1.04330
C317        C  0.15035539  0.19536120  0.78486713     0.93830
C318        C  0.15291580  0.30862712  0.69162699     0.92970
C319        C  0.15176427  0.20378373  0.68229362     0.85120
C320        C  0.15163145  0.29952081  0.79384982     0.91390
O321        O  0.21268157  0.11995947  0.69117654    -0.72370
O322        O  0.28592098  0.11803231  0.78711366    -0.73350
O323        O  0.20186988  0.11877560  0.77629819    -0.61960
O324        O  0.29606078  0.11892608  0.70053634    -0.70380
O325        O  0.27211542  0.17177250  0.69234265    -0.69930
O326        O  0.22627524  0.17158598  0.78504073    -0.61180
O327        O  0.29519929  0.17048783  0.76206715    -0.73690
O328        O  0.20466744  0.17298280  0.71594380    -0.72470
Cu329      Cu  0.24914160  0.11396479  0.73873651     1.04560
Cu330      Cu  0.24964508  0.17233645  0.73894216     1.04330
C331        C  0.19532464  0.15112247  0.69127728     0.93830
C332        C  0.30356423  0.14905551  0.78745602     0.92970
C333        C  0.20140022  0.15015960  0.79374886     0.85120
C334        C  0.29642539  0.15012491  0.68276584     0.91390
O335        O  0.29575141  0.22855457  0.66173573    -0.72370
O336        O  0.20525879  0.27463826  0.66088471    -0.73350
O337        O  0.22813319  0.20398203  0.65989176    -0.61960
O338        O  0.27322619  0.29760911  0.66279109    -0.70380
O339        O  0.29640132  0.29106354  0.60959494    -0.69930
O340        O  0.20357295  0.21328691  0.60800672    -0.61180
O341        O  0.21310779  0.30003918  0.60856064    -0.73690
O342        O  0.28702577  0.20421527  0.60908898    -0.72470
Cu343      Cu  0.25046491  0.25120366  0.66191000     1.04560
Cu344      Cu  0.25012311  0.25215938  0.60392065     1.04330
C345        C  0.30474371  0.20383193  0.63980956     0.93830
C346        C  0.19625632  0.30006072  0.63965677     0.92970
C347        C  0.20348139  0.19482008  0.63855056     0.85120
C348        C  0.29715969  0.30786560  0.64118567     0.91390
C349        C  0.32620742  0.32840785  0.81957885    -0.01910
C350        C  0.42378505  0.42156962  0.90873963    -0.01910
C351        C  0.32523958  0.17079241  0.81912117    -0.01910
C352        C  0.42475422  0.07918307  0.90918872    -0.01910
C353        C  0.17262255  0.33041381  0.81681865    -0.01910
C354        C  0.07736967  0.41956293  0.91151054    -0.01910
C355        C  0.32792035  0.33048907  0.66281452    -0.01910
C356        C  0.42206160  0.41948632  0.56550364    -0.01910
C357        C  0.17049952  0.17184862  0.81590422    -0.01910
C358        C  0.07949377  0.07812930  0.91243761    -0.01910
C359        C  0.17425548  0.33152285  0.66103131    -0.01910
C360        C  0.07572648  0.41845159  0.56729760    -0.01910
C361        C  0.32724923  0.17214951  0.66035087    -0.01910
C362        C  0.42271352  0.07782320  0.56795944    -0.01910
C363        C  0.17269341  0.17207316  0.66023222    -0.01910
C364        C  0.07726962  0.07790299  0.56810959    -0.01910
O365        O  0.12900561  0.03538593  0.94308228    -0.72370
O366        O  0.12772228  0.45850749  0.53706845    -0.73350
O367        O  0.12846560  0.44971664  0.95224378    -0.61960
O368        O  0.12864779  0.04570660  0.52871676    -0.70380
O369        O  0.07732995  0.02079449  0.53709130    -0.69930
O370        O  0.07794619  0.47620962  0.94350899    -0.61180
O371        O  0.07629768  0.45163177  0.51202809    -0.73690
O372        O  0.07869586  0.04610137  0.96859643    -0.72470
Cu373      Cu  0.13337255  0.49735049  0.99041190     1.04560
Cu374      Cu  0.07690841  0.49867030  0.99025837     1.04330
C375        C  0.09963352  0.05461749  0.94347838     0.93830
C376        C  0.09706835  0.44134749  0.53670374     0.92970
C377        C  0.09835958  0.45045543  0.93448124     0.85120
C378        C  0.09820328  0.04619283  0.54605182     0.91390
O379        O  0.47785385  0.07820334  0.53597908    -0.72370
O380        O  0.02371220  0.07838984  0.94329060    -0.73350
O381        O  0.04530626  0.07699306  0.51239126    -0.61960
O382        O  0.45478395  0.07948738  0.96624900    -0.70380
O383        O  0.46406566  0.13194348  0.94120503    -0.69930
O384        O  0.03728492  0.13001540  0.53715790    -0.61180
O385        O  0.04811429  0.13120099  0.95203832    -0.73690
O386        O  0.45390729  0.13104819  0.52778004    -0.72470
Cu387      Cu  0.00033321  0.07763923  0.98938389     1.04560
Cu388      Cu  0.50083473  0.13601063  0.98959009     1.04330
C389        C  0.45354079  0.09984958  0.54555083     0.93830
C390        C  0.04858827  0.09981708  0.93458754     0.92970
C391        C  0.05464333  0.09885321  0.53706015     0.85120
C392        C  0.44642346  0.10091975  0.94085858     0.91390
O393        O  0.45357756  0.45891081  0.61872580    -0.72370
O394        O  0.04638204  0.03668676  0.62032823    -0.73350
O395        O  0.46292859  0.04575622  0.61922769    -0.61960
O396        O  0.03687108  0.44993521  0.61976586    -0.70380
O397        O  0.04472231  0.47533572  0.56744183    -0.69930
O398        O  0.45421456  0.02141991  0.56657749    -0.61180
O399        O  0.02183051  0.04599377  0.56843939    -0.73690
O400        O  0.47675572  0.45236575  0.56553097    -0.72470
Cu401      Cu  0.49985535  0.49781484  0.62440384     1.04560
Cu402      Cu  0.49951650  0.49877094  0.56641439     1.04330
C403        C  0.45282100  0.44210915  0.58713478     0.93830
C404        C  0.04647845  0.05515516  0.58978534     0.92970
C405        C  0.44521669  0.04614060  0.58850337     0.85120
C406        C  0.05372408  0.44991360  0.58867060     0.91390
O407        O  0.42462810  0.02301894  0.94188435    -0.72370
O408        O  0.42200310  0.47677765  0.53456936    -0.73350
O409        O  0.42375187  0.45371069  0.96487289    -0.61960
O410        O  0.42269459  0.04706544  0.51090744    -0.70380
O411        O  0.37153699  0.03778921  0.53550208    -0.69930
O412        O  0.37237170  0.46126371  0.93979461    -0.61180
O413        O  0.37121433  0.45114319  0.52512713    -0.73690
O414        O  0.37288451  0.04721108  0.94875091    -0.72470
Cu415      Cu  0.42382494  0.50010432  0.98813456     1.04560
Cu416      Cu  0.36715890  0.49946938  0.98725816     1.04330
C417        C  0.40356493  0.04764318  0.93172623     0.93830
C418        C  0.40125315  0.45111690  0.54311406     0.92970
C419        C  0.40295654  0.44423063  0.93975684     0.85120
C420        C  0.40180882  0.05566247  0.53618248     0.91390
O421        O  0.45557895  0.47802578  0.90935589    -0.72370
O422        O  0.04730504  0.02199670  0.91181978    -0.73350
O423        O  0.48007023  0.04748688  0.91011404    -0.61960
O424        O  0.02314534  0.45289763  0.91094585    -0.70380
O425        O  0.04814563  0.46012564  0.85868172    -0.69930
O426        O  0.45621204  0.03736377  0.85798894    -0.61180
O427        O  0.04084109  0.04657707  0.85907174    -0.73690
O428        O  0.46554324  0.45163285  0.85794884    -0.72470
Cu429      Cu  0.50151882  0.50006337  0.91124585     1.04560
Cu430      Cu  0.50277220  0.49907078  0.85347584     1.04330
C431        C  0.44697401  0.45254184  0.88802522     0.93830
C432        C  0.05742915  0.04677986  0.89045473     0.92970
C433        C  0.45570351  0.05611916  0.88845687     0.85120
C434        C  0.04753430  0.44271957  0.88975840     0.91390
O435        O  0.03575780  0.36777749  0.94004673    -0.72370
O436        O  0.46244087  0.36739291  0.53467477    -0.73350
O437        O  0.45308400  0.36791232  0.94872945    -0.61960
O438        O  0.04585312  0.36693081  0.52461485    -0.70380
O439        O  0.02039785  0.41838968  0.53578078    -0.69930
O440        O  0.47838529  0.42039865  0.94118570    -0.61180
O441        O  0.45311047  0.41957905  0.50934459    -0.73690
O442        O  0.04544894  0.41933684  0.96711010    -0.72470
Cu443      Cu  0.49916159  0.36240512  0.98701198     1.04560
Cu444      Cu  0.49935970  0.42028518  0.98836207     1.04330
C445        C  0.05419915  0.39821233  0.94161886     0.93830
C446        C  0.44439511  0.39810780  0.53442752     0.92970
C447        C  0.45370609  0.39923849  0.93131974     0.85120
C448        C  0.04536147  0.39714341  0.54398012     0.91390
C449        C  0.13993922  0.10993364  0.64593453     0.24170
C450        C  0.14785579  0.14737676  0.63688286    -0.23930
C451        C  0.13130933  0.16218248  0.60543254     0.19080
C452        C  0.11001836  0.14004437  0.58241243     0.24120
C453        C  0.10210274  0.10260065  0.59146297    -0.23880
C454        C  0.11864688  0.08779567  0.62291516     0.19020
F455        F  0.11444532  0.05144448  0.63168130    -0.13840
F456        F  0.15055784  0.09452254  0.67808243    -0.16200
F457        F  0.09940106  0.15545633  0.55026458    -0.16200
F458        F  0.13550831  0.19853441  0.59666815    -0.13840
C459        C  0.35894165  0.15604237  0.59836844     0.24170
C460        C  0.35205308  0.14828189  0.63599306    -0.23930
C461        C  0.36950436  0.11741599  0.65139791     0.19080
C462        C  0.39101482  0.09392717  0.62993891     0.24120
C463        C  0.39790576  0.10168894  0.59231508    -0.23880
C464        C  0.38045431  0.13255471  0.57690988     0.19020
F465        F  0.38403189  0.14026125  0.54056027    -0.13840
F466        F  0.34686819  0.18728838  0.58191476    -0.16200
F467        F  0.40308364  0.06267879  0.64639164    -0.16200
F468        F  0.36592897  0.10971024  0.68774787    -0.13840
C469        C  0.12838098  0.41341910  0.61106304     0.24170
C470        C  0.10017418  0.39544620  0.59221959    -0.23930
C471        C  0.09663349  0.35660601  0.59663085     0.19080
C472        C  0.12159915  0.33655542  0.61726795     0.24120
C473        C  0.14980644  0.35452828  0.63611072    -0.23880
C474        C  0.15334704  0.39336848  0.63169940     0.19020
F475        F  0.18145032  0.41260434  0.64581364    -0.13840
F476        F  0.13200776  0.45092054  0.60962304    -0.16200
F477        F  0.11797200  0.29905404  0.61870870    -0.16200
F478        F  0.06853069  0.33737022  0.58251546    -0.13840
C479        C  0.14065734  0.10850051  0.89488040     0.24170
C480        C  0.10338163  0.10306834  0.88843731    -0.23930
C481        C  0.08812899  0.12105870  0.85795945     0.19080
C482        C  0.10933722  0.14147731  0.83346359     0.24120
C483        C  0.14661278  0.14691044  0.83990685    -0.23880
C484        C  0.16186555  0.12892047  0.87038507     0.19020
F485        F  0.19777252  0.13105533  0.87679948    -0.13840
F486        F  0.15713823  0.09607715  0.92566183    -0.16200
F487        F  0.09285657  0.15389681  0.80268046    -0.16200
F488        F  0.05222198  0.11892418  0.85154496    -0.13840
C489        C  0.35919345  0.39221189  0.64452786     0.24170
C490        C  0.35265587  0.35393616  0.63839857    -0.23930
C491        C  0.36986498  0.33703734  0.60825678     0.19080
C492        C  0.39078688  0.35776396  0.58378873     0.24120
C493        C  0.39732453  0.39603961  0.58991819    -0.23880
C494        C  0.38011486  0.41293857  0.62005952     0.19020
F495        F  0.38339493  0.45000956  0.62609376    -0.13840
F496        F  0.34726021  0.41001652  0.67498962    -0.16200
F497        F  0.40272106  0.33995941  0.55332729    -0.16200
F498        F  0.36658450  0.29996643  0.60222230    -0.13840
C499        C  0.10843623  0.35785944  0.89410633     0.24170
C500        C  0.10220659  0.39605037  0.88766227    -0.23930
C501        C  0.12023756  0.41290860  0.85809801     0.19080
C502        C  0.14155725  0.39211763  0.83422402     0.24120
C503        C  0.14778678  0.35392665  0.84066789    -0.23880
C504        C  0.12975639  0.33706853  0.87023262     0.19020
F505        F  0.13249521  0.29998895  0.87620432    -0.13840
F506        F  0.09597520  0.34024823  0.92441030    -0.16200
F507        F  0.15401777  0.40972893  0.80391989    -0.16200
F508        F  0.11749943  0.44998829  0.85212672    -0.13840
C509        C  0.34531599  0.14125756  0.88118862     0.24170
C510        C  0.34988576  0.14615580  0.84280136    -0.23930
C511        C  0.37947717  0.12843182  0.82621170     0.19080
C512        C  0.40467909  0.10871694  0.84711975     0.24120
C513        C  0.40010958  0.10381976  0.88550718    -0.23880
C514        C  0.37051831  0.12154384  0.90209664     0.19020
F515        F  0.36565017  0.11980805  0.93906842    -0.13840
F516        F  0.31584471  0.15376903  0.89911489    -0.16200
F517        F  0.43414872  0.09620158  0.82919330    -0.16200
F518        F  0.38434505  0.13016769  0.78923991    -0.13840
C519        C  0.38032182  0.36798630  0.90149961     0.24170
C520        C  0.39857977  0.39794483  0.88516892    -0.23930
C521        C  0.39186687  0.40527601  0.84756018     0.19080
C522        C  0.36967105  0.38199147  0.82681827     0.24120
C523        C  0.35141342  0.35203264  0.84314896    -0.23880
C524        C  0.35812690  0.34470125  0.88075757     0.19020
F525        F  0.34518597  0.31408083  0.89780906    -0.13840
F526        F  0.38362644  0.36109737  0.93803919    -0.16200
F527        F  0.36636524  0.38888106  0.79027894    -0.16200
F528        F  0.40480938  0.43589574  0.83050867    -0.13840
O529        O  0.29379227  0.71261606  0.37032690    -0.72370
O530        O  0.20184823  0.78985211  0.36964504    -0.73350
O531        O  0.20916419  0.70340042  0.36926142    -0.61960
O532        O  0.28445005  0.79834771  0.37037113    -0.70380
O533        O  0.29441168  0.77195404  0.31896390    -0.69930
O534        O  0.20268973  0.72798120  0.31651521    -0.61180
O535        O  0.22684499  0.79708029  0.31737907    -0.73690
O536        O  0.26992619  0.70249281  0.31820528    -0.72470
Cu537      Cu  0.24722337  0.75090866  0.37484856     1.04560
Cu538      Cu  0.24847286  0.74991505  0.31707857     1.04330
C539        C  0.29429597  0.69386059  0.33985895     0.93830
C540        C  0.20245731  0.80725808  0.33856824     0.92970
C541        C  0.19257009  0.70319745  0.33788187     0.85120
C542        C  0.30301745  0.79743848  0.34029354     0.91390
O543        O  0.32798109  0.77319946  0.19374926    -0.72370
O544        O  0.32536288  0.72695900  0.28642636    -0.73350
O545        O  0.32623522  0.79626825  0.26344490    -0.61960
O546        O  0.32728081  0.70291215  0.21740226    -0.70380
O547        O  0.37843507  0.71218615  0.19279886    -0.69930
O548        O  0.37761732  0.78871797  0.28852022    -0.61180
O549        O  0.37710468  0.70276637  0.27954989    -0.73690
O550        O  0.37876904  0.79883691  0.20318786    -0.72470
Cu551      Cu  0.32616305  0.74987413  0.24018506     1.04560
Cu552      Cu  0.38282895  0.75051164  0.24105765     1.04330
C553        C  0.34872915  0.79886121  0.18520276     0.93830
C554        C  0.34642779  0.70233478  0.29658113     0.92970
C555        C  0.34703172  0.80574957  0.28855937     0.85120
C556        C  0.34816281  0.69431357  0.19212435     0.91390
O557        O  0.22958337  0.83158473  0.19254259    -0.72370
O558        O  0.27160195  0.82958058  0.28713550    -0.73350
O559        O  0.20453588  0.83063998  0.26121542    -0.61960
O560        O  0.29687220  0.83039758  0.21897476    -0.70380
O561        O  0.28753871  0.88258280  0.19364398    -0.69930
O562        O  0.21422985  0.88219902  0.28827786    -0.61180
O563        O  0.29690305  0.88206647  0.27958784    -0.73690
O564        O  0.20412773  0.88304292  0.20371015    -0.72350
Cu565      Cu  0.25062434  0.82969143  0.23996037     1.04560
Cu566      Cu  0.25082199  0.88757111  0.24130925     1.04330
C567        C  0.20461876  0.85283034  0.18434475     0.93830
C568        C  0.29628209  0.85074101  0.29699869     0.92970
C569        C  0.19578793  0.85176446  0.28670752     0.85120
C570        C  0.30558547  0.85186859  0.19389085     0.91390
O571        O  0.12098546  0.71459009  0.28526686    -0.72370
O572        O  0.12226075  0.79146362  0.19126316    -0.73350
O573        O  0.12132663  0.70426630  0.19963417    -0.61960
O574        O  0.12152240  0.80025713  0.27608814    -0.70380
O575        O  0.17204314  0.77376639  0.28482061    -0.69930
O576        O  0.17264190  0.72918011  0.19124888    -0.61180
O577        O  0.17368688  0.79834169  0.21629978    -0.73690
O578        O  0.17129201  0.70387673  0.25974428    -0.72470
Cu579      Cu  0.11661531  0.75262171  0.23792093     1.04560
Cu580      Cu  0.17307977  0.75130405  0.23807147     1.04330
C581        C  0.15035829  0.69535980  0.28486538     0.93830
C582        C  0.15291406  0.80862471  0.19162539     0.92970
C583        C  0.15176797  0.70378046  0.18229338     0.85120
C584        C  0.15162930  0.79952002  0.29384926     0.91390
O585        O  0.21268921  0.61995837  0.19117708    -0.72370
O586        O  0.28592559  0.61803354  0.28711650    -0.73350
O587        O  0.20187513  0.61877501  0.27629820    -0.61960
O588        O  0.29606868  0.61892646  0.20053908    -0.70380
O589        O  0.27211944  0.67177037  0.19234216    -0.69930
O590        O  0.22627888  0.67158624  0.28504064    -0.61180
O591        O  0.29520373  0.67048811  0.26206826    -0.73690
O592        O  0.20467135  0.67298074  0.21594464    -0.72470
Cu593      Cu  0.24914805  0.61396462  0.23873810     1.04560
Cu594      Cu  0.24964926  0.67233570  0.23894250     1.04330
C595        C  0.19533015  0.65112015  0.19127785     0.93830
C596        C  0.30356820  0.64905707  0.28745844     0.92970
C597        C  0.20140409  0.65015937  0.29374820     0.85120
C598        C  0.29643130  0.65012432  0.18276688     0.91390
O599        O  0.29575309  0.72855441  0.16173642    -0.72370
O600        O  0.20525822  0.77463731  0.16088365    -0.73350
O601        O  0.22813641  0.70398151  0.15989298    -0.61960
O602        O  0.27322482  0.79760870  0.16279108    -0.70380
O603        O  0.29640032  0.79106374  0.10959483    -0.69930
O604        O  0.20357652  0.71328393  0.10800704    -0.61180
O605        O  0.21310656  0.80003719  0.10855918    -0.73690
O606        O  0.28702915  0.70421526  0.10908950    -0.72470
Cu607      Cu  0.25046564  0.75120318  0.16191015     1.04560
Cu608      Cu  0.25012429  0.75215813  0.10392055     1.04330
C609        C  0.30474703  0.70383229  0.13981015     0.93830
C610        C  0.19625465  0.80005908  0.13965512     0.92970
C611        C  0.20348565  0.69481801  0.13855139     0.85120
C612        C  0.29715791  0.80786565  0.14118560     0.91390
C613        C  0.32620466  0.82841063  0.31957710    -0.01910
C614        C  0.42379026  0.92156809  0.40873021    -0.01910
C615        C  0.32524205  0.67079542  0.31912383    -0.01910
C616        C  0.42475322  0.57918572  0.40919820    -0.01910
C617        C  0.17261998  0.83041394  0.31681827    -0.01910
C618        C  0.07737407  0.91956382  0.41151974    -0.01910
C619        C  0.32791757  0.83049013  0.16281382    -0.01910
C620        C  0.42204736  0.91948476  0.06549219    -0.01910
C621        C  0.17050228  0.67184767  0.31590236    -0.01910
C622        C  0.07949257  0.57812759  0.41242886    -0.01910
C623        C  0.17425253  0.83152118  0.16102953    -0.01910
C624        C  0.07571178  0.91845179  0.06730736    -0.01910
C625        C  0.32725408  0.67215054  0.16035191    -0.01910
C626        C  0.42273186  0.57782654  0.06797008    -0.01910
C627        C  0.17269876  0.67207022  0.16023253    -0.01910
C628        C  0.07728725  0.57790128  0.06809880    -0.01910
O629        O  0.12900689  0.53538319  0.44306609    -0.72370
O630        O  0.12770950  0.95850890  0.03708383    -0.73350
O631        O  0.12846450  0.94971866  0.45225996    -0.61960
O632        O  0.12866080  0.54570527  0.02869928    -0.70380
O633        O  0.07734502  0.52079193  0.03708207    -0.69930
O634        O  0.07794594  0.97621088  0.44351854    -0.61180
O635        O  0.07628664  0.95163452  0.01203873    -0.73690
O636        O  0.07870007  0.54609859  0.46858696    -0.72470
Cu637      Cu  0.13336524  0.99735258  0.49042898     1.04560
Cu638      Cu  0.07690077  0.99867256  0.49026789     1.04330
C639        C  0.09963483  0.55461468  0.44346648     0.93830
C640        C  0.09705544  0.94134923  0.03671585     0.92970
C641        C  0.09836083  0.95045688  0.43449333     0.85120
C642        C  0.09821878  0.54619117  0.04603880     0.91390
O643        O  0.47786816  0.57820513  0.03598324    -0.72370
O644        O  0.02371432  0.57838999  0.44328783    -0.73350
O645        O  0.04531717  0.57699209  0.01238517    -0.61960
O646        O  0.45478802  0.57949052  0.46625580    -0.70380
O647        O  0.46406981  0.63194521  0.44120925    -0.69930
O648        O  0.03730032  0.63001477  0.03715272    -0.61180
O649        O  0.04811934  0.63120024  0.45203264    -0.73690
O650        O  0.45392153  0.63105034  0.02778613    -0.72470
Cu651      Cu  0.00034101  0.57764011  0.48938437     1.04560
Cu652      Cu  0.50084455  0.63601132  0.48958999     1.04330
C653        C  0.45355669  0.59985205  0.04555759     0.93830
C654        C  0.04859025  0.59981626  0.43458201     0.92970
C655        C  0.05465805  0.59885219  0.03705253     0.85120
C656        C  0.44642603  0.60092243  0.44086549     0.91390
O657        O  0.45355636  0.95890851  0.11871808    -0.72370
O658        O  0.04640533  0.53668699  0.12032142    -0.73350
O659        O  0.46295334  0.54575954  0.11923375    -0.61960
O660        O  0.03684846  0.94993365  0.11977110    -0.70380
O661        O  0.04470785  0.97533671  0.06744992    -0.69930
O662        O  0.45422975  0.52142082  0.06658673    -0.61180
O663        O  0.02184805  0.54599192  0.06843466    -0.73690
O664        O  0.47674042  0.95236672  0.06552512    -0.72470
Cu665      Cu  0.49983161  0.99781315  0.12440338     1.04560
Cu666      Cu  0.49950112  0.99877150  0.06641382     1.04330
C667        C  0.45280378  0.94210856  0.08712616     0.93830
C668        C  0.04649835  0.55515385  0.08977768     0.92970
C669        C  0.44523646  0.54614348  0.08851254     0.85120
C670        C  0.05370634  0.94991326  0.08867870     0.91390
O671        O  0.42462913  0.52302124  0.44189433    -0.72370
O672        O  0.42198891  0.97677697  0.03455944    -0.73350
O673        O  0.42375005  0.95370999  0.46486307    -0.61960
O674        O  0.42270799  0.54706560  0.01091915    -0.70380
O675        O  0.37155133  0.53779380  0.03551824    -0.69930
O676        O  0.37237241  0.96126049  0.43977800    -0.61180
O677        O  0.37120365  0.95113862  0.02510884    -0.73690
O678        O  0.37288737  0.54721516  0.44876763    -0.72470
Cu679      Cu  0.42381738  0.00010329  0.48812442     1.04560
Cu680      Cu  0.36715183  0.99946525  0.48724045     1.04330
C681        C  0.40356548  0.54764631  0.43173872     0.93830
C682        C  0.40123983  0.95111423  0.04310025     0.92970
C683        C  0.40295809  0.94422906  0.43974443     0.85120
C684        C  0.40182439  0.55566491  0.03619553     0.91390
O685        O  0.45558255  0.97802495  0.40934888    -0.72370
O686        O  0.04730250  0.52199578  0.41181382    -0.73350
O687        O  0.48006774  0.54748657  0.41011883    -0.61960
O688        O  0.02314952  0.95289845  0.41094960    -0.70380
O689        O  0.04815497  0.96012586  0.35868780    -0.69930
O690        O  0.45620440  0.53736547  0.35799553    -0.61180
O691        O  0.04083308  0.54657690  0.35906698    -0.73690
O692        O  0.46555335  0.95163129  0.35794364    -0.72470
Cu693      Cu  0.50152181  0.00006364  0.41124537     1.04560
Cu694      Cu  0.50278169  0.99907013  0.35347559     1.04330
C695        C  0.44698062  0.95254037  0.38801767     0.93830
C696        C  0.05742484  0.54677896  0.39044786     0.92970
C697        C  0.45569957  0.55612025  0.38846392     0.85120
C698        C  0.04754063  0.94272030  0.38976474     0.91390
O699        O  0.03575981  0.86777743  0.44005082    -0.72370
O700        O  0.46243053  0.86739161  0.03466885    -0.73350
O701        O  0.45308530  0.86791111  0.44872277    -0.61960
O702        O  0.04584433  0.86693062  0.02462082    -0.70380
O703        O  0.02038698  0.91838896  0.03578406    -0.69930
O704        O  0.47838652  0.92039824  0.44118293    -0.61180
O705        O  0.45310310  0.91957801  0.00933792    -0.73690
O706        O  0.04544765  0.91933635  0.46711604    -0.72470
Cu707      Cu  0.49915773  0.86240443  0.48701135     1.04560
Cu708      Cu  0.49935515  0.92028457  0.48836201     1.04330
C709        C  0.05420076  0.89821240  0.44162536     0.93830
C710        C  0.44438452  0.89810631  0.03441924     0.92970
C711        C  0.45370892  0.89923761  0.43131375     0.85120
C712        C  0.04534990  0.89714304  0.04398632     0.91390
C713        C  0.13995532  0.60992718  0.14592489     0.24170
C714        C  0.14786442  0.64737370  0.13688043    -0.23930
C715        C  0.13131684  0.66218185  0.10543186     0.19080
C716        C  0.11003090  0.64004378  0.08240719     0.24120
C717        C  0.10212102  0.60259752  0.09145192    -0.23880
C718        C  0.11866814  0.58778937  0.12290083     0.19020
F719        F  0.11447401  0.55143530  0.13165925    -0.13840
F720        F  0.15057580  0.59451187  0.17807005    -0.16200
F721        F  0.09941306  0.65545856  0.05026088    -0.16200
F722        F  0.13550986  0.69853612  0.09667379    -0.13840
C723        C  0.35894713  0.65603856  0.09837019     0.24170
C724        C  0.35206131  0.64828353  0.13599641    -0.23930
C725        C  0.36952099  0.61742515  0.15140643     0.19080
C726        C  0.39103858  0.59393891  0.12995163     0.24120
C727        C  0.39792450  0.60169380  0.09232535    -0.23880
C728        C  0.38046552  0.63255275  0.07691548     0.19020
F729        F  0.38404081  0.64025390  0.04056447    -0.13840
F730        F  0.34686394  0.68727704  0.08191029    -0.16200
F731        F  0.40312098  0.56270033  0.14641189    -0.16200
F732        F  0.36594726  0.60972493  0.18775780    -0.13840
C733        C  0.12836586  0.91341936  0.11107394     0.24170
C734        C  0.10015987  0.89544620  0.09222959    -0.23930
C735        C  0.09662282  0.85660513  0.09663704     0.19080
C736        C  0.12159249  0.83655407  0.11726925     0.24120
C737        C  0.14980046  0.85452698  0.13611120    -0.23880
C738        C  0.15333623  0.89336838  0.13170483     0.19020
F739        F  0.18143869  0.91260562  0.14581878    -0.13840
F740        F  0.13198818  0.95092149  0.10963934    -0.16200
F741        F  0.11796834  0.79905225  0.11870645    -0.16200
F742        F  0.06851974  0.83736896  0.08252262    -0.13840
C743        C  0.14065549  0.60850158  0.39487679     0.24170
C744        C  0.10338084  0.60306634  0.38842924    -0.23930
C745        C  0.08813030  0.62105440  0.35794910     0.19080
C746        C  0.10934013  0.64147287  0.33345479     0.24120
C747        C  0.14661462  0.64690885  0.33990261    -0.23880
C748        C  0.16186523  0.62892110  0.37038297     0.19020
F749        F  0.19777141  0.63105816  0.37680132    -0.13840
F750        F  0.15713332  0.59608326  0.42566204    -0.16200
F751        F  0.09286248  0.65388885  0.30266851    -0.16200
F752        F  0.05222403  0.61891820  0.35153101    -0.13840
C753        C  0.35918195  0.89221431  0.14451817     0.24170
C754        C  0.35265041  0.85393662  0.13839517    -0.23930
C755        C  0.36986002  0.83703583  0.10825467     0.19080
C756        C  0.39077750  0.85776198  0.08378247     0.24120
C757        C  0.39731015  0.89603915  0.08990672    -0.23880
C758        C  0.38009826  0.91294046  0.12004532     0.19020
F759        F  0.38337177  0.95001321  0.12607275    -0.13840
F760        F  0.34724778  0.91002191  0.17497776    -0.16200
F761        F  0.40271243  0.83995539  0.05332249    -0.16200
F762        F  0.36658425  0.79996357  0.10222559    -0.13840
C763        C  0.10843867  0.85785952  0.39411183     0.24170
C764        C  0.10221240  0.89605176  0.38767176    -0.23930
C765        C  0.12024471  0.91291096  0.35810891     0.19080
C766        C  0.14156042  0.89211975  0.33423110     0.24120
C767        C  0.14778573  0.85392703  0.34067003    -0.23880
C768        C  0.12975559  0.83706837  0.37023478     0.19020
F769        F  0.13249171  0.79998804  0.37620333    -0.13840
F770        F  0.09597697  0.84024701  0.42441479    -0.16200
F771        F  0.15402126  0.90973312  0.30392839    -0.16200
F772        F  0.11751081  0.94999177  0.35214208    -0.13840
C773        C  0.34531498  0.64126019  0.38119324     0.24170
C774        C  0.34988775  0.64615974  0.34280629    -0.23930
C775        C  0.37948118  0.62843716  0.32621914     0.19080
C776        C  0.40468193  0.60872262  0.34712906     0.24120
C777        C  0.40010886  0.60382280  0.38551588    -0.23880
C778        C  0.37051579  0.62154582  0.40210311     0.19020
F779        F  0.36564457  0.61980877  0.43907438    -0.13840
F780        F  0.31584202  0.65377080  0.39911725    -0.16200
F781        F  0.43415486  0.59621157  0.32920528    -0.16200
F782        F  0.38435251  0.63017428  0.28924792    -0.13840
C783        C  0.38032385  0.86798860  0.40149342     0.24170
C784        C  0.39858587  0.89794283  0.38515983    -0.23930
C785        C  0.39187471  0.90527138  0.34755035     0.19080
C786        C  0.36967356  0.88198966  0.32681137     0.24120
C787        C  0.35141204  0.85203503  0.34314520    -0.23880
C788        C  0.35812540  0.84470538  0.38075400     0.19020
F789        F  0.34518037  0.81408865  0.39780863    -0.13840
F790        F  0.38362726  0.86110267  0.43803369    -0.16200
F791        F  0.36636684  0.88887712  0.29027167    -0.16200
F792        F  0.40482472  0.93588560  0.33049514    -0.13840
O793        O  0.29379226  0.71261606  0.87032690    -0.72370
O794        O  0.20184823  0.78985211  0.86964505    -0.73350
O795        O  0.20916419  0.70340042  0.86926142    -0.61960
O796        O  0.28445004  0.79834771  0.87037113    -0.70380
O797        O  0.29441168  0.77195404  0.81896391    -0.69930
O798        O  0.20268973  0.72798120  0.81651522    -0.61180
O799        O  0.22684499  0.79708029  0.81737908    -0.73690
O800        O  0.26992618  0.70249281  0.81820528    -0.72470
Cu801      Cu  0.24722337  0.75090866  0.87484857     1.04560
Cu802      Cu  0.24847286  0.74991505  0.81707858     1.04330
C803        C  0.29429597  0.69386059  0.83985895     0.93830
C804        C  0.20245731  0.80725808  0.83856825     0.92970
C805        C  0.19257008  0.70319744  0.83788188     0.85120
C806        C  0.30301745  0.79743848  0.84029355     0.91390
O807        O  0.32798109  0.77319947  0.69374927    -0.72370
O808        O  0.32536288  0.72695900  0.78642637    -0.73350
O809        O  0.32623521  0.79626825  0.76344491    -0.61960
O810        O  0.32728081  0.70291215  0.71740226    -0.70380
O811        O  0.37843507  0.71218616  0.69279887    -0.69930
O812        O  0.37761732  0.78871798  0.78852023    -0.61180
O813        O  0.37710468  0.70276637  0.77954989    -0.73690
O814        O  0.37876904  0.79883691  0.70318787    -0.72470
Cu815      Cu  0.32616305  0.74987413  0.74018507     1.04560
Cu816      Cu  0.38282895  0.75051164  0.74105766     1.04330
C817        C  0.34872915  0.79886121  0.68520277     0.93830
C818        C  0.34642779  0.70233478  0.79658114     0.92970
C819        C  0.34703172  0.80574958  0.78855938     0.85120
C820        C  0.34816281  0.69431357  0.69212436     0.91390
O821        O  0.22958337  0.83158474  0.69254260    -0.72370
O822        O  0.27160195  0.82958059  0.78713551    -0.73350
O823        O  0.20453589  0.83063998  0.76121543    -0.61960
O824        O  0.29687221  0.83039759  0.71897477    -0.70380
O825        O  0.28753871  0.88258281  0.69364399    -0.69930
O826        O  0.21422985  0.88219903  0.78827787    -0.61180
O827        O  0.29690305  0.88206648  0.77958785    -0.73690
O828        O  0.20412773  0.88304293  0.70371017    -0.72350
Cu829      Cu  0.25062434  0.82969143  0.73996038     1.04560
Cu830      Cu  0.25082199  0.88757112  0.74130926     1.04330
C831        C  0.20461876  0.85283035  0.68434476     0.93830
C832        C  0.29628209  0.85074101  0.79699870     0.92970
C833        C  0.19578793  0.85176446  0.78670753     0.85120
C834        C  0.30558547  0.85186859  0.69389086     0.91390
O835        O  0.12098546  0.71459009  0.78526686    -0.72370
O836        O  0.12226075  0.79146363  0.69126317    -0.73350
O837        O  0.12132663  0.70426631  0.69963417    -0.61960
O838        O  0.12152239  0.80025713  0.77608814    -0.70380
O839        O  0.17204314  0.77376639  0.78482061    -0.69930
O840        O  0.17264190  0.72918012  0.69124888    -0.61180
O841        O  0.17368688  0.79834170  0.71629978    -0.73690
O842        O  0.17129200  0.70387673  0.75974428    -0.72470
Cu843      Cu  0.11661531  0.75262171  0.73792093     1.04560
Cu844      Cu  0.17307977  0.75130406  0.73807147     1.04330
C845        C  0.15035829  0.69535980  0.78486538     0.93830
C846        C  0.15291406  0.80862472  0.69162540     0.92970
C847        C  0.15176797  0.70378046  0.68229338     0.85120
C848        C  0.15162930  0.79952002  0.79384926     0.91390
O849        O  0.21268921  0.61995837  0.69117708    -0.72370
O850        O  0.28592559  0.61803354  0.78711649    -0.73350
O851        O  0.20187513  0.61877501  0.77629820    -0.61960
O852        O  0.29606868  0.61892647  0.70053908    -0.70380
O853        O  0.27211945  0.67177038  0.69234216    -0.69930
O854        O  0.22627888  0.67158624  0.78504064    -0.61180
O855        O  0.29520373  0.67048811  0.76206826    -0.73690
O856        O  0.20467135  0.67298075  0.71594464    -0.72470
Cu857      Cu  0.24914805  0.61396463  0.73873809     1.04560
Cu858      Cu  0.24964926  0.67233571  0.73894250     1.04330
C859        C  0.19533015  0.65112016  0.69127785     0.93830
C860        C  0.30356819  0.64905707  0.78745844     0.92970
C861        C  0.20140409  0.65015937  0.79374820     0.85120
C862        C  0.29643130  0.65012433  0.68276688     0.91390
O863        O  0.29575309  0.72855442  0.66173642    -0.72370
O864        O  0.20525823  0.77463732  0.66088366    -0.73350
O865        O  0.22813641  0.70398152  0.65989298    -0.61960
O866        O  0.27322482  0.79760870  0.66279109    -0.70380
O867        O  0.29640032  0.79106375  0.60959484    -0.69930
O868        O  0.20357652  0.71328394  0.60800704    -0.61180
O869        O  0.21310656  0.80003720  0.60855919    -0.73690
O870        O  0.28702915  0.70421527  0.60908950    -0.72470
Cu871      Cu  0.25046564  0.75120319  0.66191016     1.04560
Cu872      Cu  0.25012429  0.75215814  0.60392055     1.04330
C873        C  0.30474703  0.70383229  0.63981015     0.93830
C874        C  0.19625465  0.80005909  0.63965513     0.92970
C875        C  0.20348565  0.69481802  0.63855139     0.85120
C876        C  0.29715791  0.80786565  0.64118560     0.91390
C877        C  0.32620466  0.82841063  0.81957711    -0.01910
C878        C  0.42379026  0.92156809  0.90873021    -0.01910
C879        C  0.32524205  0.67079542  0.81912383    -0.01910
C880        C  0.42475322  0.57918571  0.90919819    -0.01910
C881        C  0.17261998  0.83041394  0.81681827    -0.01910
C882        C  0.07737406  0.91956383  0.91151975    -0.01910
C883        C  0.32791757  0.83049014  0.66281383    -0.01910
C884        C  0.42204736  0.91948475  0.56549219    -0.01910
C885        C  0.17050227  0.67184767  0.81590236    -0.01910
C886        C  0.07949257  0.57812759  0.91242886    -0.01910
C887        C  0.17425253  0.83152119  0.66102954    -0.01910
C888        C  0.07571178  0.91845179  0.56730736    -0.01910
C889        C  0.32725408  0.67215055  0.66035191    -0.01910
C890        C  0.42273186  0.57782653  0.56797009    -0.01910
C891        C  0.17269876  0.67207023  0.66023253    -0.01910
C892        C  0.07728725  0.57790128  0.56809880    -0.01910
O893        O  0.12900689  0.53538318  0.94306609    -0.72370
O894        O  0.12770950  0.95850889  0.53708383    -0.73350
O895        O  0.12846450  0.94971866  0.95225996    -0.61960
O896        O  0.12866080  0.54570527  0.52869928    -0.70380
O897        O  0.07734503  0.52079193  0.53708207    -0.69930
O898        O  0.07794593  0.97621088  0.94351854    -0.61180
O899        O  0.07628664  0.95163451  0.51203873    -0.73690
O900        O  0.07870007  0.54609859  0.96858696    -0.72470
Cu901      Cu  0.13336524  0.99735259  0.99042898     1.04560
Cu902      Cu  0.07690077  0.99867256  0.99026789     1.04330
C903        C  0.09963483  0.55461468  0.94346647     0.93830
C904        C  0.09705544  0.94134923  0.53671585     0.92970
C905        C  0.09836082  0.95045689  0.93449333     0.85120
C906        C  0.09821878  0.54619117  0.54603880     0.91390
O907        O  0.47786816  0.57820513  0.53598325    -0.72370
O908        O  0.02371432  0.57838999  0.94328782    -0.73350
O909        O  0.04531718  0.57699209  0.51238518    -0.61960
O910        O  0.45478802  0.57949051  0.96625578    -0.70380
O911        O  0.46406982  0.63194521  0.94120923    -0.69930
O912        O  0.03730033  0.63001477  0.53715272    -0.61180
O913        O  0.04811934  0.63120024  0.95203263    -0.73690
O914        O  0.45392153  0.63105033  0.52778615    -0.72470
Cu915      Cu  0.00034101  0.57764010  0.98938436     1.04560
Cu916      Cu  0.50084456  0.63601132  0.98958997     1.04330
C917        C  0.45355669  0.59985205  0.54555760     0.93830
C918        C  0.04859025  0.59981626  0.93458200     0.92970
C919        C  0.05465805  0.59885218  0.53705253     0.85120
C920        C  0.44642604  0.60092242  0.94086547     0.91390
O921        O  0.45355636  0.95890850  0.61871807    -0.72370
O922        O  0.04640534  0.53668699  0.62032142    -0.73350
O923        O  0.46295335  0.54575953  0.61923376    -0.61960
O924        O  0.03684846  0.94993365  0.61977110    -0.70380
O925        O  0.04470785  0.97533671  0.56744992    -0.69930
O926        O  0.45422975  0.52142081  0.56658674    -0.61180
O927        O  0.02184805  0.54599191  0.56843467    -0.73690
O928        O  0.47674042  0.95236671  0.56552511    -0.72470
Cu929      Cu  0.49983161  0.99781314  0.62440338     1.04560
Cu930      Cu  0.49950112  0.99877150  0.56641381     1.04330
C931        C  0.45280378  0.94210856  0.58712615     0.93830
C932        C  0.04649835  0.55515385  0.58977768     0.92970
C933        C  0.44523646  0.54614347  0.58851255     0.85120
C934        C  0.05370634  0.94991325  0.58867870     0.91390
O935        O  0.42462914  0.52302124  0.94189432    -0.72370
O936        O  0.42198891  0.97677696  0.53455944    -0.73350
O937        O  0.42375005  0.95371000  0.96486307    -0.61960
O938        O  0.42270799  0.54706559  0.51091916    -0.70380
O939        O  0.37155134  0.53779379  0.53551825    -0.69930
O940        O  0.37237241  0.96126050  0.93977800    -0.61180
O941        O  0.37120365  0.95113861  0.52510884    -0.73690
O942        O  0.37288737  0.54721515  0.94876761    -0.72470
Cu943      Cu  0.42381739  0.00010330  0.98812442     1.04560
Cu944      Cu  0.36715184  0.99946526  0.98724045     1.04330
C945        C  0.40356548  0.54764631  0.93173871     0.93830
C946        C  0.40123983  0.95111422  0.54310025     0.92970
C947        C  0.40295809  0.94422906  0.93974443     0.85120
C948        C  0.40182439  0.55566491  0.53619554     0.91390
O949        O  0.45558255  0.97802495  0.90934889    -0.72370
O950        O  0.04730250  0.52199578  0.91181382    -0.73350
O951        O  0.48006775  0.54748657  0.91011882    -0.61960
O952        O  0.02314952  0.95289845  0.91094960    -0.70380
O953        O  0.04815497  0.96012586  0.85868780    -0.69930
O954        O  0.45620440  0.53736546  0.85799552    -0.61180
O955        O  0.04083308  0.54657689  0.85906698    -0.73690
O956        O  0.46555335  0.95163130  0.85794364    -0.72470
Cu957      Cu  0.50152181  0.00006364  0.91124537     1.04560
Cu958      Cu  0.50278170  0.99907013  0.85347559     1.04330
C959        C  0.44698062  0.95254037  0.88801767     0.93830
C960        C  0.05742484  0.54677896  0.89044786     0.92970
C961        C  0.45569958  0.55612024  0.88846391     0.85120
C962        C  0.04754063  0.94272030  0.88976475     0.91390
O963        O  0.03575981  0.86777743  0.94005083    -0.72370
O964        O  0.46243053  0.86739160  0.53466885    -0.73350
O965        O  0.45308530  0.86791111  0.94872277    -0.61960
O966        O  0.04584433  0.86693062  0.52462082    -0.70380
O967        O  0.02038698  0.91838895  0.53578406    -0.69930
O968        O  0.47838652  0.92039824  0.94118293    -0.61180
O969        O  0.45310310  0.91957801  0.50933791    -0.73690
O970        O  0.04544765  0.91933635  0.96711605    -0.72470
Cu971      Cu  0.49915772  0.86240443  0.98701136     1.04560
Cu972      Cu  0.49935515  0.92028457  0.98836201     1.04330
C973        C  0.05420075  0.89821240  0.94162537     0.93830
C974        C  0.44438452  0.89810630  0.53441924     0.92970
C975        C  0.45370892  0.89923761  0.93131375     0.85120
C976        C  0.04534990  0.89714303  0.54398632     0.91390
C977        C  0.13995532  0.60992719  0.64592489     0.24170
C978        C  0.14786442  0.64737370  0.63688043    -0.23930
C979        C  0.13131684  0.66218185  0.60543186     0.19080
C980        C  0.11003091  0.64004377  0.58240719     0.24120
C981        C  0.10212103  0.60259752  0.59145193    -0.23880
C982        C  0.11866814  0.58778937  0.62290084     0.19020
F983        F  0.11447401  0.55143531  0.63165926    -0.13840
F984        F  0.15057579  0.59451189  0.67807006    -0.16200
F985        F  0.09941308  0.65545855  0.55026087    -0.16200
F986        F  0.13550987  0.69853612  0.59667378    -0.13840
C987        C  0.35894712  0.65603855  0.59837019     0.24170
C988        C  0.35206131  0.64828353  0.63599641    -0.23930
C989        C  0.36952100  0.61742517  0.65140644     0.19080
C990        C  0.39103860  0.59393892  0.62995165     0.24120
C991        C  0.39792451  0.60169380  0.59232536    -0.23880
C992        C  0.38046551  0.63255274  0.57691548     0.19020
F993        F  0.38404079  0.64025387  0.54056446    -0.13840
F994        F  0.34686392  0.68727702  0.58191028    -0.16200
F995        F  0.40312101  0.56270036  0.64641192    -0.16200
F996        F  0.36594728  0.60972496  0.68775782    -0.13840
C997        C  0.12836585  0.91341936  0.61107394     0.24170
C998        C  0.10015986  0.89544620  0.59222959    -0.23930
C999        C  0.09662282  0.85660513  0.59663703     0.19080
C1000       C  0.12159250  0.83655407  0.61726925     0.24120
C1001       C  0.14980046  0.85452699  0.63611121    -0.23880
C1002       C  0.15333622  0.89336839  0.63170484     0.19020
F1003       F  0.18143867  0.91260563  0.64581880    -0.13840
F1004       F  0.13198816  0.95092149  0.60963935    -0.16200
F1005       F  0.11796836  0.79905224  0.61870645    -0.16200
F1006       F  0.06851976  0.83736895  0.58252260    -0.13840
C1007       C  0.14065548  0.60850157  0.89487678     0.24170
C1008       C  0.10338084  0.60306633  0.88842923    -0.23930
C1009       C  0.08813030  0.62105440  0.85794910     0.19080
C1010       C  0.10934013  0.64147287  0.83345479     0.24120
C1011       C  0.14661462  0.64690885  0.83990261    -0.23880
C1012       C  0.16186523  0.62892110  0.87038296     0.19020
F1013       F  0.19777141  0.63105816  0.87680131    -0.13840
F1014       F  0.15713332  0.59608326  0.92566203    -0.16200
F1015       F  0.09286248  0.65388885  0.80266851    -0.16200
F1016       F  0.05222403  0.61891819  0.85153100    -0.13840
C1017       C  0.35918195  0.89221431  0.64451816     0.24170
C1018       C  0.35265041  0.85393662  0.63839518    -0.23930
C1019       C  0.36986002  0.83703583  0.60825468     0.19080
C1020       C  0.39077750  0.85776197  0.58378247     0.24120
C1021       C  0.39731015  0.89603915  0.58990672    -0.23880
C1022       C  0.38009826  0.91294046  0.62004532     0.19020
F1023       F  0.38337177  0.95001321  0.62607274    -0.13840
F1024       F  0.34724777  0.91002192  0.67497775    -0.16200
F1025       F  0.40271244  0.83995537  0.55332250    -0.16200
F1026       F  0.36658426  0.79996357  0.60222560    -0.13840
C1027       C  0.10843867  0.85785952  0.89411183     0.24170
C1028       C  0.10221240  0.89605177  0.88767176    -0.23930
C1029       C  0.12024471  0.91291096  0.85810891     0.19080
C1030       C  0.14156042  0.89211975  0.83423111     0.24120
C1031       C  0.14778572  0.85392703  0.84067003    -0.23880
C1032       C  0.12975558  0.83706837  0.87023479     0.19020
F1033       F  0.13249170  0.79998804  0.87620333    -0.13840
F1034       F  0.09597697  0.84024702  0.92441479    -0.16200
F1035       F  0.15402126  0.90973312  0.80392839    -0.16200
F1036       F  0.11751081  0.94999177  0.85214208    -0.13840
C1037       C  0.34531499  0.64126019  0.88119324     0.24170
C1038       C  0.34988775  0.64615974  0.84280629    -0.23930
C1039       C  0.37948117  0.62843715  0.82621913     0.19080
C1040       C  0.40468193  0.60872261  0.84712905     0.24120
C1041       C  0.40010887  0.60382279  0.88551587    -0.23880
C1042       C  0.37051581  0.62154582  0.90210311     0.19020
F1043       F  0.36564460  0.61980878  0.93907437    -0.13840
F1044       F  0.31584204  0.65377082  0.89911726    -0.16200
F1045       F  0.43415485  0.59621154  0.82920526    -0.16200
F1046       F  0.38435250  0.63017427  0.78924791    -0.13840
C1047       C  0.38032385  0.86798861  0.90149343     0.24170
C1048       C  0.39858587  0.89794284  0.88515983    -0.23930
C1049       C  0.39187471  0.90527138  0.84755035     0.19080
C1050       C  0.36967356  0.88198966  0.82681137     0.24120
C1051       C  0.35141204  0.85203503  0.84314521    -0.23880
C1052       C  0.35812539  0.84470539  0.88075401     0.19020
F1053       F  0.34518036  0.81408867  0.89780865    -0.13840
F1054       F  0.38362725  0.86110269  0.93803370    -0.16200
F1055       F  0.36636685  0.88887711  0.79027167    -0.16200
F1056       F  0.40482473  0.93588559  0.83049514    -0.13840
O1057       O  0.79379213  0.21261312  0.37032593    -0.72370
O1058       O  0.70184986  0.28985162  0.36964603    -0.73350
O1059       O  0.70916361  0.20339998  0.36926218    -0.61960
O1060       O  0.78445236  0.29834488  0.37037228    -0.70380
O1061       O  0.79441284  0.27195202  0.31896433    -0.69930
O1062       O  0.70268910  0.22798102  0.31651602    -0.61180
O1063       O  0.72684693  0.29707968  0.31738032    -0.73690
O1064       O  0.76992453  0.20249110  0.31820488    -0.72470
Cu1065     Cu  0.74722424  0.25090694  0.37484906     1.04560
Cu1066     Cu  0.74847307  0.24991394  0.31707908     1.04330
C1067       C  0.79429467  0.19385801  0.33985772     0.93830
C1068       C  0.70245925  0.30725767  0.33856927     0.92970
C1069       C  0.69256897  0.20319766  0.33788294     0.85120
C1070       C  0.80301952  0.29743574  0.34029454     0.91390
O1071       O  0.82798190  0.27319787  0.19374896    -0.72370
O1072       O  0.82536206  0.22695690  0.28642548    -0.73350
O1073       O  0.82623791  0.29626702  0.26344544    -0.61960
O1074       O  0.82727868  0.20291038  0.21740161    -0.70380
O1075       O  0.87843267  0.21218283  0.19279732    -0.69930
O1076       O  0.87761915  0.28871354  0.28852104    -0.61180
O1077       O  0.87710286  0.20276206  0.27954794    -0.73690
O1078       O  0.87877054  0.29883362  0.20318815    -0.72470
Cu1079     Cu  0.82616314  0.24987257  0.24018476     1.04560
Cu1080     Cu  0.88282878  0.25050764  0.24105700     1.04330
C1081       C  0.84873074  0.29885908  0.18520292     0.93830
C1082       C  0.84642599  0.20233140  0.29657917     0.92970
C1083       C  0.84703444  0.30574688  0.28856050     0.85120
C1084       C  0.84815986  0.19431110  0.19212322     0.91390
O1085       O  0.72958593  0.33158465  0.19254448    -0.72370
O1086       O  0.77160495  0.32957851  0.28713648    -0.73350
O1087       O  0.70453938  0.33063924  0.26121667    -0.61960
O1088       O  0.79687477  0.33039620  0.21897543    -0.70380
O1089       O  0.78754295  0.38258236  0.19364572    -0.69930
O1090       O  0.71423278  0.38219871  0.28827889    -0.61180
O1091       O  0.79690608  0.38206450  0.27959004    -0.73690
O1092       O  0.70413175  0.38304393  0.20371143    -0.72350
Cu1093     Cu  0.75062727  0.32969051  0.23996155     1.04560
Cu1094     Cu  0.75082568  0.38757062  0.24131089     1.04330
C1095       C  0.70462203  0.35283106  0.18434650     0.93830
C1096       C  0.79628497  0.35073872  0.29700038     0.92970
C1097       C  0.69579108  0.35176400  0.28670838     0.85120
C1098       C  0.80558863  0.35186744  0.19389193     0.91390
O1099       O  0.62098344  0.21459291  0.28526877    -0.72370
O1100       O  0.62226170  0.29146742  0.19126488    -0.73350
O1101       O  0.62132342  0.20427015  0.19963524    -0.61960
O1102       O  0.62152419  0.30025920  0.27608951    -0.70380
O1103       O  0.67204446  0.27376666  0.28482095    -0.69930
O1104       O  0.67263927  0.22918238  0.19124899    -0.61180
O1105       O  0.67368835  0.29834279  0.21630108    -0.73690
O1106       O  0.67128867  0.20387682  0.25974510    -0.72470
Cu1107     Cu  0.61661465  0.25262502  0.23792246     1.04560
Cu1108     Cu  0.67307902  0.25130482  0.23807214     1.04330
C1109       C  0.65035539  0.19536120  0.28486713     0.93830
C1110       C  0.65291580  0.30862712  0.19162699     0.92970
C1111       C  0.65176427  0.20378373  0.18229363     0.85120
C1112       C  0.65163145  0.29952082  0.29384982     0.91390
O1113       O  0.71268158  0.11995947  0.19117655    -0.72370
O1114       O  0.78592098  0.11803232  0.28711366    -0.73350
O1115       O  0.70186989  0.11877561  0.27629820    -0.61960
O1116       O  0.79606079  0.11892608  0.20053635    -0.70380
O1117       O  0.77211542  0.17177250  0.19234266    -0.69930
O1118       O  0.72627524  0.17158598  0.28504074    -0.61180
O1119       O  0.79519929  0.17048783  0.26206716    -0.73690
O1120       O  0.70466744  0.17298280  0.21594380    -0.72470
Cu1121     Cu  0.74914160  0.11396479  0.23873651     1.04560
Cu1122     Cu  0.74964508  0.17233645  0.23894217     1.04330
C1123       C  0.69532464  0.15112247  0.19127728     0.93830
C1124       C  0.80356423  0.14905552  0.28745603     0.92970
C1125       C  0.70140022  0.15015960  0.29374887     0.85120
C1126       C  0.79642539  0.15012491  0.18276584     0.91390
O1127       O  0.79575141  0.22855456  0.16173573    -0.72370
O1128       O  0.70525879  0.27463825  0.16088471    -0.73350
O1129       O  0.72813319  0.20398203  0.15989176    -0.61960
O1130       O  0.77322619  0.29760911  0.16279109    -0.70380
O1131       O  0.79640133  0.29106353  0.10959494    -0.69930
O1132       O  0.70357296  0.21328690  0.10800672    -0.61180
O1133       O  0.71310779  0.30003918  0.10856064    -0.73690
O1134       O  0.78702578  0.20421527  0.10908898    -0.72470
Cu1135     Cu  0.75046491  0.25120366  0.16191000     1.04560
Cu1136     Cu  0.75012311  0.25215938  0.10392065     1.04330
C1137       C  0.80474371  0.20383193  0.13980957     0.93830
C1138       C  0.69625632  0.30006072  0.13965677     0.92970
C1139       C  0.70348139  0.19482007  0.13855057     0.85120
C1140       C  0.79715969  0.30786560  0.14118567     0.91390
C1141       C  0.82620742  0.32840786  0.31957885    -0.01910
C1142       C  0.92378505  0.42156963  0.40873963    -0.01910
C1143       C  0.82523958  0.17079241  0.31912118    -0.01910
C1144       C  0.92475422  0.07918307  0.40918871    -0.01910
C1145       C  0.67262255  0.33041381  0.31681865    -0.01910
C1146       C  0.57736967  0.41956294  0.41151053    -0.01910
C1147       C  0.82792035  0.33048906  0.16281452    -0.01910
C1148       C  0.92206160  0.41948632  0.06550364    -0.01910
C1149       C  0.67049952  0.17184862  0.31590423    -0.01910
C1150       C  0.57949377  0.07812930  0.41243761    -0.01910
C1151       C  0.67425548  0.33152284  0.16103131    -0.01910
C1152       C  0.57572648  0.41845159  0.06729761    -0.01910
C1153       C  0.82724923  0.17214951  0.16035088    -0.01910
C1154       C  0.92271352  0.07782320  0.06795944    -0.01910
C1155       C  0.67269341  0.17207316  0.16023222    -0.01910
C1156       C  0.57726962  0.07790299  0.06810959    -0.01910
O1157       O  0.62900561  0.03538593  0.44308228    -0.72370
O1158       O  0.62772228  0.45850749  0.03706845    -0.73350
O1159       O  0.62846560  0.44971664  0.45224377    -0.61960
O1160       O  0.62864779  0.04570660  0.02871676    -0.70380
O1161       O  0.57732995  0.02079449  0.03709130    -0.69930
O1162       O  0.57794619  0.47620963  0.44350898    -0.61180
O1163       O  0.57629768  0.45163177  0.01202809    -0.73690
O1164       O  0.57869586  0.04610137  0.46859643    -0.72470
Cu1165     Cu  0.63337255  0.49735049  0.49041189     1.04560
Cu1166     Cu  0.57690841  0.49867030  0.49025837     1.04330
C1167       C  0.59963352  0.05461749  0.44347838     0.93830
C1168       C  0.59706835  0.44134749  0.03670374     0.92970
C1169       C  0.59835957  0.45045543  0.43448123     0.85120
C1170       C  0.59820328  0.04619283  0.04605181     0.91390
O1171       O  0.97785385  0.07820334  0.03597908    -0.72370
O1172       O  0.52371220  0.07838983  0.44329060    -0.73350
O1173       O  0.54530626  0.07699306  0.01239126    -0.61960
O1174       O  0.95478395  0.07948738  0.46624900    -0.70380
O1175       O  0.96406565  0.13194348  0.44120503    -0.69930
O1176       O  0.53728492  0.13001540  0.03715790    -0.61180
O1177       O  0.54811428  0.13120099  0.45203832    -0.73690
O1178       O  0.95390729  0.13104819  0.02778004    -0.72470
Cu1179     Cu  0.50033321  0.07763923  0.48938389     1.04560
Cu1180     Cu  0.00083473  0.13601063  0.48959009     1.04330
C1181       C  0.95354079  0.09984959  0.04555083     0.93830
C1182       C  0.54858827  0.09981708  0.43458754     0.92970
C1183       C  0.55464333  0.09885322  0.03706015     0.85120
C1184       C  0.94642346  0.10091974  0.44085858     0.91390
O1185       O  0.95357756  0.45891082  0.11872579    -0.72370
O1186       O  0.54638204  0.03668676  0.12032823    -0.73350
O1187       O  0.96292859  0.04575623  0.11922769    -0.61960
O1188       O  0.53687108  0.44993522  0.11976586    -0.70380
O1189       O  0.54472231  0.47533572  0.06744184    -0.69930
O1190       O  0.95421456  0.02141991  0.06657749    -0.61180
O1191       O  0.52183051  0.04599377  0.06843939    -0.73690
O1192       O  0.97675572  0.45236575  0.06553097    -0.72470
Cu1193     Cu  0.99985534  0.49781484  0.12440384     1.04560
Cu1194     Cu  0.99951649  0.49877094  0.06641439     1.04330
C1195       C  0.95282100  0.44210916  0.08713478     0.93830
C1196       C  0.54647845  0.05515517  0.08978534     0.92970
C1197       C  0.94521669  0.04614060  0.08850336     0.85120
C1198       C  0.55372408  0.44991360  0.08867060     0.91390
O1199       O  0.92462810  0.02301893  0.44188434    -0.72370
O1200       O  0.92200309  0.47677765  0.03456936    -0.73350
O1201       O  0.92375187  0.45371069  0.46487289    -0.61960
O1202       O  0.92269460  0.04706545  0.01090744    -0.70380
O1203       O  0.87153699  0.03778921  0.03550208    -0.69930
O1204       O  0.87237170  0.46126371  0.43979461    -0.61180
O1205       O  0.87121433  0.45114319  0.02512712    -0.73690
O1206       O  0.87288452  0.04721107  0.44875090    -0.72470
Cu1207     Cu  0.92382494  0.50010432  0.48813457     1.04560
Cu1208     Cu  0.86715890  0.49946938  0.48725817     1.04330
C1209       C  0.90356493  0.04764317  0.43172623     0.93830
C1210       C  0.90125315  0.45111690  0.04311406     0.92970
C1211       C  0.90295654  0.44423063  0.43975684     0.85120
C1212       C  0.90180882  0.05566248  0.03618248     0.91390
O1213       O  0.95557895  0.47802579  0.40935589    -0.72370
O1214       O  0.54730504  0.02199670  0.41181978    -0.73350
O1215       O  0.98007024  0.04748688  0.41011404    -0.61960
O1216       O  0.52314534  0.45289763  0.41094584    -0.70380
O1217       O  0.54814563  0.46012565  0.35868172    -0.69930
O1218       O  0.95621204  0.03736377  0.35798894    -0.61180
O1219       O  0.54084109  0.04657707  0.35907174    -0.73690
O1220       O  0.96554324  0.45163286  0.35794884    -0.72470
Cu1221     Cu  0.00151881  0.50006338  0.41124585     1.04560
Cu1222     Cu  0.00277220  0.49907079  0.35347584     1.04330
C1223       C  0.94697401  0.45254185  0.38802522     0.93830
C1224       C  0.55742914  0.04677986  0.39045473     0.92970
C1225       C  0.95570351  0.05611916  0.38845687     0.85120
C1226       C  0.54753430  0.44271958  0.38975840     0.91390
O1227       O  0.53575780  0.36777750  0.44004672    -0.72370
O1228       O  0.96244087  0.36739291  0.03467478    -0.73350
O1229       O  0.95308400  0.36791232  0.44872944    -0.61960
O1230       O  0.54585312  0.36693081  0.02461486    -0.70380
O1231       O  0.52039785  0.41838968  0.03578078    -0.69930
O1232       O  0.97838529  0.42039866  0.44118570    -0.61180
O1233       O  0.95311047  0.41957905  0.00934459    -0.73690
O1234       O  0.54544894  0.41933684  0.46711009    -0.72470
Cu1235     Cu  0.99916160  0.36240513  0.48701197     1.04560
Cu1236     Cu  0.99935970  0.42028519  0.48836207     1.04330
C1237       C  0.55419915  0.39821234  0.44161885     0.93830
C1238       C  0.94439511  0.39810780  0.03442752     0.92970
C1239       C  0.95370609  0.39923849  0.43131974     0.85120
C1240       C  0.54536146  0.39714341  0.04398012     0.91390
C1241       C  0.63993922  0.10993363  0.14593453     0.24170
C1242       C  0.64785579  0.14737676  0.13688287    -0.23930
C1243       C  0.63130933  0.16218248  0.10543255     0.19080
C1244       C  0.61001836  0.14004437  0.08241243     0.24120
C1245       C  0.60210274  0.10260065  0.09146297    -0.23880
C1246       C  0.61864688  0.08779566  0.12291516     0.19020
F1247       F  0.61444532  0.05144448  0.13168129    -0.13840
F1248       F  0.65055784  0.09452253  0.17808243    -0.16200
F1249       F  0.59940106  0.15545633  0.05026459    -0.16200
F1250       F  0.63550831  0.19853441  0.09666816    -0.13840
C1251       C  0.85894166  0.15604237  0.09836844     0.24170
C1252       C  0.85205308  0.14828189  0.13599306    -0.23930
C1253       C  0.86950436  0.11741599  0.15139791     0.19080
C1254       C  0.89101482  0.09392717  0.12993891     0.24120
C1255       C  0.89790576  0.10168894  0.09231508    -0.23880
C1256       C  0.88045432  0.13255472  0.07690988     0.19020
F1257       F  0.88403189  0.14026126  0.04056027    -0.13840
F1258       F  0.84686820  0.18728839  0.08191477    -0.16200
F1259       F  0.90308364  0.06267878  0.14639164    -0.16200
F1260       F  0.86592896  0.10971024  0.18774787    -0.13840
C1261       C  0.62838098  0.41341910  0.11106304     0.24170
C1262       C  0.60017418  0.39544620  0.09221960    -0.23930
C1263       C  0.59663349  0.35660601  0.09663086     0.19080
C1264       C  0.62159914  0.33655542  0.11726795     0.24120
C1265       C  0.64980644  0.35452828  0.13611072    -0.23880
C1266       C  0.65334705  0.39336848  0.13169940     0.19020
F1267       F  0.68145033  0.41260433  0.14581363    -0.13840
F1268       F  0.63200777  0.45092054  0.10962304    -0.16200
F1269       F  0.61797200  0.29905404  0.11870870    -0.16200
F1270       F  0.56853068  0.33737023  0.08251548    -0.13840
C1271       C  0.64065733  0.10850051  0.39488040     0.24170
C1272       C  0.60338163  0.10306834  0.38843731    -0.23930
C1273       C  0.58812899  0.12105869  0.35795945     0.19080
C1274       C  0.60933722  0.14147731  0.33346359     0.24120
C1275       C  0.64661278  0.14691044  0.33990685    -0.23880
C1276       C  0.66186554  0.12892047  0.37038507     0.19020
F1277       F  0.69777252  0.13105533  0.37679949    -0.13840
F1278       F  0.65713823  0.09607715  0.42566183    -0.16200
F1279       F  0.59285657  0.15389681  0.30268047    -0.16200
F1280       F  0.55222198  0.11892417  0.35154496    -0.13840
C1281       C  0.85919345  0.39221189  0.14452786     0.24170
C1282       C  0.85265587  0.35393616  0.13839857    -0.23930
C1283       C  0.86986498  0.33703734  0.10825678     0.19080
C1284       C  0.89078688  0.35776396  0.08378872     0.24120
C1285       C  0.89732453  0.39603961  0.08991819    -0.23880
C1286       C  0.88011486  0.41293857  0.12005952     0.19020
F1287       F  0.88339493  0.45000956  0.12609376    -0.13840
F1288       F  0.84726022  0.41001651  0.17498962    -0.16200
F1289       F  0.90272105  0.33995941  0.05332728    -0.16200
F1290       F  0.86658450  0.29996643  0.10222230    -0.13840
C1291       C  0.60843623  0.35785944  0.39410633     0.24170
C1292       C  0.60220658  0.39605037  0.38766226    -0.23930
C1293       C  0.62023755  0.41290860  0.35809800     0.19080
C1294       C  0.64155725  0.39211764  0.33422401     0.24120
C1295       C  0.64778677  0.35392665  0.34066789    -0.23880
C1296       C  0.62975639  0.33706854  0.37023262     0.19020
F1297       F  0.63249521  0.29998896  0.37620433    -0.13840
F1298       F  0.59597521  0.34024825  0.42441031    -0.16200
F1299       F  0.65401776  0.40972893  0.30391988    -0.16200
F1300       F  0.61749942  0.44998830  0.35212671    -0.13840
C1301       C  0.84531600  0.14125757  0.38118863     0.24170
C1302       C  0.84988576  0.14615581  0.34280137    -0.23930
C1303       C  0.87947716  0.12843181  0.32621170     0.19080
C1304       C  0.90467909  0.10871693  0.34711974     0.24120
C1305       C  0.90010958  0.10381975  0.38550717    -0.23880
C1306       C  0.87051832  0.12154385  0.40209664     0.19020
F1307       F  0.86565019  0.11980806  0.43906843    -0.13840
F1308       F  0.81584473  0.15376905  0.39911491    -0.16200
F1309       F  0.93414870  0.09620156  0.32919329    -0.16200
F1310       F  0.88434504  0.13016768  0.28923991    -0.13840
C1311       C  0.88032182  0.36798630  0.40149961     0.24170
C1312       C  0.89857977  0.39794483  0.38516892    -0.23930
C1313       C  0.89186687  0.40527602  0.34756018     0.19080
C1314       C  0.86967105  0.38199147  0.32681827     0.24120
C1315       C  0.85141341  0.35203264  0.34314896    -0.23880
C1316       C  0.85812690  0.34470125  0.38075757     0.19020
F1317       F  0.84518597  0.31408083  0.39780906    -0.13840
F1318       F  0.88362644  0.36109738  0.43803919    -0.16200
F1319       F  0.86636524  0.38888106  0.29027894    -0.16200
F1320       F  0.90480938  0.43589575  0.33050866    -0.13840
O1321       O  0.79379213  0.21261310  0.87032592    -0.72370
O1322       O  0.70184986  0.28985161  0.86964603    -0.73350
O1323       O  0.70916361  0.20339997  0.86926217    -0.61960
O1324       O  0.78445236  0.29834487  0.87037228    -0.70380
O1325       O  0.79441284  0.27195201  0.81896432    -0.69930
O1326       O  0.70268911  0.22798102  0.81651601    -0.61180
O1327       O  0.72684694  0.29707968  0.81738033    -0.73690
O1328       O  0.76992453  0.20249109  0.81820487    -0.72470
Cu1329     Cu  0.74722424  0.25090693  0.87484905     1.04560
Cu1330     Cu  0.74847308  0.24991393  0.81707908     1.04330
C1331       C  0.79429467  0.19385800  0.83985771     0.93830
C1332       C  0.70245925  0.30725767  0.83856928     0.92970
C1333       C  0.69256897  0.20319765  0.83788293     0.85120
C1334       C  0.80301952  0.29743573  0.84029454     0.91390
O1335       O  0.82798190  0.27319787  0.69374896    -0.72370
O1336       O  0.82536206  0.22695690  0.78642548    -0.73350
O1337       O  0.82623791  0.29626701  0.76344544    -0.61960
O1338       O  0.82727867  0.20291038  0.71740160    -0.70380
O1339       O  0.87843267  0.21218283  0.69279731    -0.69930
O1340       O  0.87761916  0.28871353  0.78852103    -0.61180
O1341       O  0.87710286  0.20276206  0.77954793    -0.73690
O1342       O  0.87877054  0.29883362  0.70318815    -0.72470
Cu1343     Cu  0.82616314  0.24987257  0.74018476     1.04560
Cu1344     Cu  0.88282878  0.25050764  0.74105699     1.04330
C1345       C  0.84873074  0.29885908  0.68520292     0.93830
C1346       C  0.84642599  0.20233139  0.79657916     0.92970
C1347       C  0.84703444  0.30574687  0.78856050     0.85120
C1348       C  0.84815986  0.19431110  0.69212321     0.91390
O1349       O  0.72958593  0.33158466  0.69254448    -0.72370
O1350       O  0.77160495  0.32957851  0.78713649    -0.73350
O1351       O  0.70453939  0.33063923  0.76121668    -0.61960
O1352       O  0.79687477  0.33039620  0.71897543    -0.70380
O1353       O  0.78754295  0.38258237  0.69364573    -0.69930
O1354       O  0.71423279  0.38219871  0.78827890    -0.61180
O1355       O  0.79690609  0.38206450  0.77959004    -0.73690
O1356       O  0.70413176  0.38304393  0.70371144    -0.72350
Cu1357     Cu  0.75062727  0.32969051  0.73996155     1.04560
Cu1358     Cu  0.75082569  0.38757062  0.74131090     1.04330
C1359       C  0.70462204  0.35283107  0.68434650     0.93830
C1360       C  0.79628497  0.35073871  0.79700038     0.92970
C1361       C  0.69579109  0.35176400  0.78670838     0.85120
C1362       C  0.80558863  0.35186744  0.69389193     0.91390
O1363       O  0.62098344  0.21459291  0.78526877    -0.72370
O1364       O  0.62226170  0.29146743  0.69126488    -0.73350
O1365       O  0.62132342  0.20427015  0.69963524    -0.61960
O1366       O  0.62152419  0.30025920  0.77608951    -0.70380
O1367       O  0.67204446  0.27376665  0.78482095    -0.69930
O1368       O  0.67263927  0.22918239  0.69124899    -0.61180
O1369       O  0.67368835  0.29834280  0.71630109    -0.73690
O1370       O  0.67128867  0.20387682  0.75974509    -0.72470
Cu1371     Cu  0.61661466  0.25262503  0.73792246     1.04560
Cu1372     Cu  0.67307902  0.25130482  0.73807214     1.04330
C1373       C  0.65035538  0.19536120  0.78486713     0.93830
C1374       C  0.65291580  0.30862712  0.69162699     0.92970
C1375       C  0.65176427  0.20378374  0.68229362     0.85120
C1376       C  0.65163146  0.29952081  0.79384982     0.91390
O1377       O  0.71268157  0.11995947  0.69117654    -0.72370
O1378       O  0.78592097  0.11803231  0.78711365    -0.73350
O1379       O  0.70186988  0.11877560  0.77629818    -0.61960
O1380       O  0.79606078  0.11892608  0.70053634    -0.70380
O1381       O  0.77211542  0.17177250  0.69234265    -0.69930
O1382       O  0.72627523  0.17158598  0.78504073    -0.61180
O1383       O  0.79519929  0.17048782  0.76206715    -0.73690
O1384       O  0.70466744  0.17298280  0.71594379    -0.72470
Cu1385     Cu  0.74914160  0.11396479  0.73873650     1.04560
Cu1386     Cu  0.74964508  0.17233645  0.73894216     1.04330
C1387       C  0.69532464  0.15112247  0.69127727     0.93830
C1388       C  0.80356423  0.14905551  0.78745601     0.92970
C1389       C  0.70140022  0.15015960  0.79374886     0.85120
C1390       C  0.79642539  0.15012491  0.68276583     0.91390
O1391       O  0.79575141  0.22855457  0.66173573    -0.72370
O1392       O  0.70525879  0.27463826  0.66088471    -0.73350
O1393       O  0.72813319  0.20398204  0.65989175    -0.61960
O1394       O  0.77322619  0.29760911  0.66279109    -0.70380
O1395       O  0.79640133  0.29106354  0.60959494    -0.69930
O1396       O  0.70357295  0.21328692  0.60800672    -0.61180
O1397       O  0.71310779  0.30003919  0.60856065    -0.73690
O1398       O  0.78702577  0.20421528  0.60908898    -0.72470
Cu1399     Cu  0.75046491  0.25120366  0.66191000     1.04560
Cu1400     Cu  0.75012311  0.25215938  0.60392065     1.04330
C1401       C  0.80474371  0.20383193  0.63980956     0.93830
C1402       C  0.69625632  0.30006073  0.63965677     0.92970
C1403       C  0.70348139  0.19482008  0.63855056     0.85120
C1404       C  0.79715969  0.30786561  0.64118567     0.91390
C1405       C  0.82620742  0.32840785  0.81957885    -0.01910
C1406       C  0.92378505  0.42156962  0.90873963    -0.01910
C1407       C  0.82523958  0.17079241  0.81912117    -0.01910
C1408       C  0.92475422  0.07918307  0.90918872    -0.01910
C1409       C  0.67262255  0.33041381  0.81681866    -0.01910
C1410       C  0.57736967  0.41956293  0.91151054    -0.01910
C1411       C  0.82792035  0.33048907  0.66281452    -0.01910
C1412       C  0.92206160  0.41948632  0.56550363    -0.01910
C1413       C  0.67049952  0.17184862  0.81590422    -0.01910
C1414       C  0.57949378  0.07812930  0.91243761    -0.01910
C1415       C  0.67425548  0.33152285  0.66103131    -0.01910
C1416       C  0.57572649  0.41845159  0.56729760    -0.01910
C1417       C  0.82724923  0.17214951  0.66035087    -0.01910
C1418       C  0.92271352  0.07782320  0.56795943    -0.01910
C1419       C  0.67269341  0.17207317  0.66023222    -0.01910
C1420       C  0.57726961  0.07790299  0.56810959    -0.01910
O1421       O  0.62900561  0.03538592  0.94308228    -0.72370
O1422       O  0.62772229  0.45850749  0.53706845    -0.73350
O1423       O  0.62846560  0.44971663  0.95224378    -0.61960
O1424       O  0.62864779  0.04570660  0.52871676    -0.70380
O1425       O  0.57732995  0.02079449  0.53709130    -0.69930
O1426       O  0.57794619  0.47620962  0.94350899    -0.61180
O1427       O  0.57629768  0.45163177  0.51202808    -0.73690
O1428       O  0.57869586  0.04610137  0.96859643    -0.72470
Cu1429     Cu  0.63337255  0.49735049  0.99041190     1.04560
Cu1430     Cu  0.57690841  0.49867029  0.99025837     1.04330
C1431       C  0.59963352  0.05461749  0.94347838     0.93830
C1432       C  0.59706835  0.44134749  0.53670374     0.92970
C1433       C  0.59835958  0.45045543  0.93448124     0.85120
C1434       C  0.59820328  0.04619283  0.54605181     0.91390
O1435       O  0.97785385  0.07820334  0.53597907    -0.72370
O1436       O  0.52371221  0.07838984  0.94329060    -0.73350
O1437       O  0.54530625  0.07699306  0.51239126    -0.61960
O1438       O  0.95478394  0.07948738  0.96624900    -0.70380
O1439       O  0.96406565  0.13194348  0.94120503    -0.69930
O1440       O  0.53728492  0.13001540  0.53715790    -0.61180
O1441       O  0.54811429  0.13120099  0.95203832    -0.73690
O1442       O  0.95390729  0.13104819  0.52778003    -0.72470
Cu1443     Cu  0.50033321  0.07763923  0.98938389     1.04560
Cu1444     Cu  0.00083473  0.13601063  0.98959009     1.04330
C1445       C  0.95354079  0.09984958  0.54555083     0.93830
C1446       C  0.54858827  0.09981708  0.93458754     0.92970
C1447       C  0.55464333  0.09885321  0.53706015     0.85120
C1448       C  0.94642346  0.10091975  0.94085858     0.91390
O1449       O  0.95357756  0.45891082  0.61872579    -0.72370
O1450       O  0.54638204  0.03668676  0.62032823    -0.73350
O1451       O  0.96292859  0.04575622  0.61922769    -0.61960
O1452       O  0.53687109  0.44993521  0.61976586    -0.70380
O1453       O  0.54472231  0.47533572  0.56744183    -0.69930
O1454       O  0.95421456  0.02141991  0.56657749    -0.61180
O1455       O  0.52183051  0.04599377  0.56843939    -0.73690
O1456       O  0.97675572  0.45236575  0.56553097    -0.72470
Cu1457     Cu  0.99985534  0.49781484  0.62440384     1.04560
Cu1458     Cu  0.99951650  0.49877094  0.56641439     1.04330
C1459       C  0.95282100  0.44210916  0.58713478     0.93830
C1460       C  0.54647845  0.05515516  0.58978534     0.92970
C1461       C  0.94521669  0.04614060  0.58850336     0.85120
C1462       C  0.55372409  0.44991360  0.58867060     0.91390
O1463       O  0.92462810  0.02301893  0.94188435    -0.72370
O1464       O  0.92200309  0.47677765  0.53456936    -0.73350
O1465       O  0.92375187  0.45371068  0.96487289    -0.61960
O1466       O  0.92269460  0.04706544  0.51090744    -0.70380
O1467       O  0.87153699  0.03778921  0.53550208    -0.69930
O1468       O  0.87237170  0.46126371  0.93979461    -0.61180
O1469       O  0.87121433  0.45114320  0.52512712    -0.73690
O1470       O  0.87288451  0.04721108  0.94875091    -0.72470
Cu1471     Cu  0.92382494  0.50010432  0.98813456     1.04560
Cu1472     Cu  0.86715889  0.49946938  0.98725816     1.04330
C1473       C  0.90356492  0.04764318  0.93172623     0.93830
C1474       C  0.90125315  0.45111690  0.54311406     0.92970
C1475       C  0.90295654  0.44423063  0.93975684     0.85120
C1476       C  0.90180882  0.05566247  0.53618248     0.91390
O1477       O  0.95557895  0.47802578  0.90935589    -0.72370
O1478       O  0.54730504  0.02199670  0.91181978    -0.73350
O1479       O  0.98007023  0.04748688  0.91011404    -0.61960
O1480       O  0.52314534  0.45289763  0.91094585    -0.70380
O1481       O  0.54814563  0.46012564  0.85868172    -0.69930
O1482       O  0.95621204  0.03736377  0.85798894    -0.61180
O1483       O  0.54084109  0.04657707  0.85907174    -0.73690
O1484       O  0.96554324  0.45163285  0.85794884    -0.72470
Cu1485     Cu  0.00151881  0.50006337  0.91124585     1.04560
Cu1486     Cu  0.00277220  0.49907078  0.85347584     1.04330
C1487       C  0.94697401  0.45254184  0.88802522     0.93830
C1488       C  0.55742915  0.04677986  0.89045473     0.92970
C1489       C  0.95570351  0.05611916  0.88845687     0.85120
C1490       C  0.54753430  0.44271957  0.88975840     0.91390
O1491       O  0.53575780  0.36777749  0.94004673    -0.72370
O1492       O  0.96244087  0.36739291  0.53467477    -0.73350
O1493       O  0.95308401  0.36791231  0.94872945    -0.61960
O1494       O  0.54585312  0.36693081  0.52461485    -0.70380
O1495       O  0.52039785  0.41838968  0.53578078    -0.69930
O1496       O  0.97838529  0.42039865  0.94118570    -0.61180
O1497       O  0.95311047  0.41957905  0.50934459    -0.73690
O1498       O  0.54544894  0.41933684  0.96711010    -0.72470
Cu1499     Cu  0.99916160  0.36240512  0.98701198     1.04560
Cu1500     Cu  0.99935970  0.42028518  0.98836207     1.04330
C1501       C  0.55419915  0.39821233  0.94161886     0.93830
C1502       C  0.94439511  0.39810780  0.53442752     0.92970
C1503       C  0.95370609  0.39923849  0.93131974     0.85120
C1504       C  0.54536147  0.39714341  0.54398011     0.91390
C1505       C  0.63993922  0.10993364  0.64593453     0.24170
C1506       C  0.64785578  0.14737677  0.63688286    -0.23930
C1507       C  0.63130933  0.16218248  0.60543254     0.19080
C1508       C  0.61001836  0.14004437  0.58241242     0.24120
C1509       C  0.60210274  0.10260065  0.59146297    -0.23880
C1510       C  0.61864688  0.08779567  0.62291516     0.19020
F1511       F  0.61444531  0.05144449  0.63168130    -0.13840
F1512       F  0.65055783  0.09452255  0.67808243    -0.16200
F1513       F  0.59940106  0.15545633  0.55026458    -0.16200
F1514       F  0.63550831  0.19853441  0.59666814    -0.13840
C1515       C  0.85894165  0.15604237  0.59836843     0.24170
C1516       C  0.85205308  0.14828189  0.63599305    -0.23930
C1517       C  0.86950436  0.11741600  0.65139790     0.19080
C1518       C  0.89101482  0.09392717  0.62993891     0.24120
C1519       C  0.89790576  0.10168894  0.59231508    -0.23880
C1520       C  0.88045431  0.13255471  0.57690987     0.19020
F1521       F  0.88403189  0.14026125  0.54056026    -0.13840
F1522       F  0.84686819  0.18728838  0.58191476    -0.16200
F1523       F  0.90308364  0.06267879  0.64639164    -0.16200
F1524       F  0.86592896  0.10971025  0.68774787    -0.13840
C1525       C  0.62838098  0.41341910  0.61106304     0.24170
C1526       C  0.60017419  0.39544620  0.59221959    -0.23930
C1527       C  0.59663350  0.35660600  0.59663085     0.19080
C1528       C  0.62159915  0.33655542  0.61726795     0.24120
C1529       C  0.64980645  0.35452829  0.63611072    -0.23880
C1530       C  0.65334704  0.39336849  0.63169941     0.19020
F1531       F  0.68145031  0.41260435  0.64581365    -0.13840
F1532       F  0.63200776  0.45092054  0.60962304    -0.16200
F1533       F  0.61797202  0.29905404  0.61870869    -0.16200
F1534       F  0.56853070  0.33737022  0.58251545    -0.13840
C1535       C  0.64065734  0.10850051  0.89488039     0.24170
C1536       C  0.60338163  0.10306834  0.88843731    -0.23930
C1537       C  0.58812899  0.12105869  0.85795945     0.19080
C1538       C  0.60933722  0.14147731  0.83346359     0.24120
C1539       C  0.64661278  0.14691044  0.83990684    -0.23880
C1540       C  0.66186555  0.12892046  0.87038506     0.19020
F1541       F  0.69777252  0.13105532  0.87679948    -0.13840
F1542       F  0.65713824  0.09607715  0.92566182    -0.16200
F1543       F  0.59285657  0.15389681  0.80268047    -0.16200
F1544       F  0.55222198  0.11892418  0.85154497    -0.13840
C1545       C  0.85919345  0.39221190  0.64452786     0.24170
C1546       C  0.85265587  0.35393616  0.63839857    -0.23930
C1547       C  0.86986498  0.33703734  0.60825678     0.19080
C1548       C  0.89078688  0.35776396  0.58378872     0.24120
C1549       C  0.89732453  0.39603961  0.58991819    -0.23880
C1550       C  0.88011486  0.41293857  0.62005951     0.19020
F1551       F  0.88339493  0.45000956  0.62609375    -0.13840
F1552       F  0.84726022  0.41001652  0.67498962    -0.16200
F1553       F  0.90272106  0.33995941  0.55332729    -0.16200
F1554       F  0.86658450  0.29996643  0.60222231    -0.13840
C1555       C  0.60843623  0.35785943  0.89410633     0.24170
C1556       C  0.60220659  0.39605036  0.88766227    -0.23930
C1557       C  0.62023756  0.41290860  0.85809801     0.19080
C1558       C  0.64155726  0.39211763  0.83422402     0.24120
C1559       C  0.64778678  0.35392665  0.84066790    -0.23880
C1560       C  0.62975639  0.33706853  0.87023263     0.19020
F1561       F  0.63249521  0.29998895  0.87620433    -0.13840
F1562       F  0.59597520  0.34024823  0.92441030    -0.16200
F1563       F  0.65401778  0.40972893  0.80391990    -0.16200
F1564       F  0.61749943  0.44998829  0.85212673    -0.13840
C1565       C  0.84531599  0.14125755  0.88118862     0.24170
C1566       C  0.84988576  0.14615580  0.84280136    -0.23930
C1567       C  0.87947717  0.12843181  0.82621170     0.19080
C1568       C  0.90467909  0.10871694  0.84711975     0.24120
C1569       C  0.90010958  0.10381975  0.88550717    -0.23880
C1570       C  0.87051830  0.12154384  0.90209663     0.19020
F1571       F  0.86565017  0.11980804  0.93906842    -0.13840
F1572       F  0.81584471  0.15376902  0.89911489    -0.16200
F1573       F  0.93414872  0.09620158  0.82919330    -0.16200
F1574       F  0.88434505  0.13016768  0.78923991    -0.13840
C1575       C  0.88032182  0.36798630  0.90149961     0.24170
C1576       C  0.89857977  0.39794482  0.88516892    -0.23930
C1577       C  0.89186687  0.40527601  0.84756018     0.19080
C1578       C  0.86967106  0.38199146  0.82681827     0.24120
C1579       C  0.85141342  0.35203263  0.84314896    -0.23880
C1580       C  0.85812690  0.34470124  0.88075757     0.19020
F1581       F  0.84518597  0.31408082  0.89780906    -0.13840
F1582       F  0.88362645  0.36109737  0.93803919    -0.16200
F1583       F  0.86636525  0.38888105  0.79027894    -0.16200
F1584       F  0.90480938  0.43589573  0.83050866    -0.13840
O1585       O  0.79379227  0.71261606  0.37032690    -0.72370
O1586       O  0.70184823  0.78985211  0.36964504    -0.73350
O1587       O  0.70916419  0.70340042  0.36926142    -0.61960
O1588       O  0.78445005  0.79834771  0.37037113    -0.70380
O1589       O  0.79441168  0.77195405  0.31896390    -0.69930
O1590       O  0.70268973  0.72798120  0.31651521    -0.61180
O1591       O  0.72684499  0.79708029  0.31737907    -0.73690
O1592       O  0.76992619  0.70249281  0.31820528    -0.72470
Cu1593     Cu  0.74722337  0.75090867  0.37484856     1.04560
Cu1594     Cu  0.74847286  0.74991505  0.31707857     1.04330
C1595       C  0.79429597  0.69386059  0.33985895     0.93830
C1596       C  0.70245731  0.80725808  0.33856824     0.92970
C1597       C  0.69257009  0.70319745  0.33788188     0.85120
C1598       C  0.80301745  0.79743849  0.34029354     0.91390
O1599       O  0.82798109  0.77319946  0.19374926    -0.72370
O1600       O  0.82536288  0.72695900  0.28642636    -0.73350
O1601       O  0.82623522  0.79626825  0.26344490    -0.61960
O1602       O  0.82728080  0.70291215  0.21740226    -0.70380
O1603       O  0.87843507  0.71218615  0.19279886    -0.69930
O1604       O  0.87761732  0.78871797  0.28852022    -0.61180
O1605       O  0.87710468  0.70276637  0.27954989    -0.73690
O1606       O  0.87876904  0.79883691  0.20318786    -0.72470
Cu1607     Cu  0.82616305  0.74987413  0.24018506     1.04560
Cu1608     Cu  0.88282895  0.75051164  0.24105765     1.04330
C1609       C  0.84872915  0.79886121  0.18520276     0.93830
C1610       C  0.84642779  0.70233478  0.29658113     0.92970
C1611       C  0.84703172  0.80574957  0.28855937     0.85120
C1612       C  0.84816281  0.69431357  0.19212435     0.91390
O1613       O  0.72958337  0.83158473  0.19254259    -0.72370
O1614       O  0.77160195  0.82958059  0.28713550    -0.73350
O1615       O  0.70453588  0.83063998  0.26121542    -0.61960
O1616       O  0.79687220  0.83039758  0.21897476    -0.70380
O1617       O  0.78753871  0.88258281  0.19364398    -0.69930
O1618       O  0.71422985  0.88219903  0.28827786    -0.61180
O1619       O  0.79690305  0.88206647  0.27958784    -0.73690
O1620       O  0.70412773  0.88304292  0.20371016    -0.72350
Cu1621     Cu  0.75062434  0.82969143  0.23996037     1.04560
Cu1622     Cu  0.75082199  0.88757111  0.24130925     1.04330
C1623       C  0.70461876  0.85283034  0.18434475     0.93830
C1624       C  0.79628209  0.85074101  0.29699869     0.92970
C1625       C  0.69578793  0.85176446  0.28670752     0.85120
C1626       C  0.80558547  0.85186859  0.19389085     0.91390
O1627       O  0.62098546  0.71459009  0.28526687    -0.72370
O1628       O  0.62226075  0.79146363  0.19126317    -0.73350
O1629       O  0.62132662  0.70426631  0.19963417    -0.61960
O1630       O  0.62152239  0.80025713  0.27608814    -0.70380
O1631       O  0.67204314  0.77376639  0.28482061    -0.69930
O1632       O  0.67264190  0.72918011  0.19124888    -0.61180
O1633       O  0.67368688  0.79834169  0.21629978    -0.73690
O1634       O  0.67129200  0.70387673  0.25974428    -0.72470
Cu1635     Cu  0.61661531  0.75262171  0.23792093     1.04560
Cu1636     Cu  0.67307977  0.75130405  0.23807147     1.04330
C1637       C  0.65035829  0.69535980  0.28486539     0.93830
C1638       C  0.65291406  0.80862471  0.19162539     0.92970
C1639       C  0.65176797  0.70378046  0.18229338     0.85120
C1640       C  0.65162930  0.79952003  0.29384926     0.91390
O1641       O  0.71268921  0.61995837  0.19117709    -0.72370
O1642       O  0.78592559  0.61803354  0.28711650    -0.73350
O1643       O  0.70187513  0.61877501  0.27629820    -0.61960
O1644       O  0.79606867  0.61892647  0.20053908    -0.70380
O1645       O  0.77211944  0.67177037  0.19234216    -0.69930
O1646       O  0.72627888  0.67158624  0.28504064    -0.61180
O1647       O  0.79520373  0.67048811  0.26206826    -0.73690
O1648       O  0.70467135  0.67298074  0.21594464    -0.72470
Cu1649     Cu  0.74914805  0.61396462  0.23873810     1.04560
Cu1650     Cu  0.74964926  0.67233570  0.23894250     1.04330
C1651       C  0.69533015  0.65112016  0.19127785     0.93830
C1652       C  0.80356819  0.64905707  0.28745844     0.92970
C1653       C  0.70140409  0.65015937  0.29374821     0.85120
C1654       C  0.79643130  0.65012433  0.18276688     0.91390
O1655       O  0.79575308  0.72855442  0.16173642    -0.72370
O1656       O  0.70525822  0.77463732  0.16088365    -0.73350
O1657       O  0.72813641  0.70398151  0.15989298    -0.61960
O1658       O  0.77322482  0.79760870  0.16279108    -0.70380
O1659       O  0.79640032  0.79106374  0.10959483    -0.69930
O1660       O  0.70357652  0.71328393  0.10800704    -0.61180
O1661       O  0.71310656  0.80003719  0.10855918    -0.73690
O1662       O  0.78702915  0.70421526  0.10908950    -0.72470
Cu1663     Cu  0.75046564  0.75120318  0.16191015     1.04560
Cu1664     Cu  0.75012428  0.75215813  0.10392055     1.04330
C1665       C  0.80474703  0.70383229  0.13981015     0.93830
C1666       C  0.69625465  0.80005908  0.13965512     0.92970
C1667       C  0.70348565  0.69481802  0.13855139     0.85120
C1668       C  0.79715790  0.80786565  0.14118560     0.91390
C1669       C  0.82620466  0.82841063  0.31957710    -0.01910
C1670       C  0.92379027  0.92156809  0.40873020    -0.01910
C1671       C  0.82524205  0.67079542  0.31912383    -0.01910
C1672       C  0.92475322  0.57918572  0.40919820    -0.01910
C1673       C  0.67261998  0.83041394  0.31681827    -0.01910
C1674       C  0.57737406  0.91956383  0.41151974    -0.01910
C1675       C  0.82791757  0.83049013  0.16281382    -0.01910
C1676       C  0.92204736  0.91948476  0.06549219    -0.01910
C1677       C  0.67050227  0.67184767  0.31590236    -0.01910
C1678       C  0.57949257  0.57812760  0.41242886    -0.01910
C1679       C  0.67425253  0.83152118  0.16102953    -0.01910
C1680       C  0.57571178  0.91845179  0.06730736    -0.01910
C1681       C  0.82725408  0.67215054  0.16035191    -0.01910
C1682       C  0.92273186  0.57782653  0.06797008    -0.01910
C1683       C  0.67269876  0.67207022  0.16023253    -0.01910
C1684       C  0.57728725  0.57790128  0.06809880    -0.01910
O1685       O  0.62900689  0.53538319  0.44306609    -0.72370
O1686       O  0.62770950  0.95850889  0.03708383    -0.73350
O1687       O  0.62846450  0.94971866  0.45225995    -0.61960
O1688       O  0.62866080  0.54570527  0.02869928    -0.70380
O1689       O  0.57734503  0.52079192  0.03708207    -0.69930
O1690       O  0.57794593  0.97621088  0.44351854    -0.61180
O1691       O  0.57628664  0.95163452  0.01203873    -0.73690
O1692       O  0.57870007  0.54609859  0.46858696    -0.72470
Cu1693     Cu  0.63336523  0.99735259  0.49042898     1.04560
Cu1694     Cu  0.57690077  0.99867256  0.49026789     1.04330
C1695       C  0.59963483  0.55461469  0.44346648     0.93830
C1696       C  0.59705544  0.94134923  0.03671585     0.92970
C1697       C  0.59836082  0.95045689  0.43449333     0.85120
C1698       C  0.59821878  0.54619117  0.04603880     0.91390
O1699       O  0.97786815  0.57820513  0.03598324    -0.72370
O1700       O  0.52371432  0.57838999  0.44328783    -0.73350
O1701       O  0.54531718  0.57699209  0.01238517    -0.61960
O1702       O  0.95478802  0.57949052  0.46625579    -0.70380
O1703       O  0.96406981  0.63194521  0.44120924    -0.69930
O1704       O  0.53730033  0.63001477  0.03715272    -0.61180
O1705       O  0.54811934  0.63120024  0.45203264    -0.73690
O1706       O  0.95392153  0.63105033  0.02778613    -0.72470
Cu1707     Cu  0.50034101  0.57764011  0.48938437     1.04560
Cu1708     Cu  0.00084455  0.63601132  0.48958998     1.04330
C1709       C  0.95355669  0.59985205  0.04555759     0.93830
C1710       C  0.54859024  0.59981626  0.43458201     0.92970
C1711       C  0.55465805  0.59885218  0.03705253     0.85120
C1712       C  0.94642603  0.60092243  0.44086548     0.91390
O1713       O  0.95355636  0.95890851  0.11871807    -0.72370
O1714       O  0.54640533  0.53668699  0.12032142    -0.73350
O1715       O  0.96295334  0.54575954  0.11923375    -0.61960
O1716       O  0.53684846  0.94993365  0.11977110    -0.70380
O1717       O  0.54470785  0.97533671  0.06744992    -0.69930
O1718       O  0.95422975  0.52142082  0.06658673    -0.61180
O1719       O  0.52184805  0.54599192  0.06843466    -0.73690
O1720       O  0.97674042  0.95236672  0.06552512    -0.72470
Cu1721     Cu  0.99983161  0.99781315  0.12440338     1.04560
Cu1722     Cu  0.99950112  0.99877150  0.06641381     1.04330
C1723       C  0.95280378  0.94210856  0.08712616     0.93830
C1724       C  0.54649835  0.55515385  0.08977768     0.92970
C1725       C  0.94523645  0.54614347  0.08851254     0.85120
C1726       C  0.55370634  0.94991325  0.08867870     0.91390
O1727       O  0.92462913  0.52302124  0.44189433    -0.72370
O1728       O  0.92198891  0.97677697  0.03455944    -0.73350
O1729       O  0.92375005  0.95371000  0.46486307    -0.61960
O1730       O  0.92270799  0.54706559  0.01091915    -0.70380
O1731       O  0.87155133  0.53779379  0.03551824    -0.69930
O1732       O  0.87237241  0.96126049  0.43977800    -0.61180
O1733       O  0.87120365  0.95113862  0.02510884    -0.73690
O1734       O  0.87288737  0.54721516  0.44876762    -0.72470
Cu1735     Cu  0.92381739  0.00010329  0.48812442     1.04560
Cu1736     Cu  0.86715184  0.99946525  0.48724045     1.04330
C1737       C  0.90356548  0.54764631  0.43173872     0.93830
C1738       C  0.90123983  0.95111423  0.04310025     0.92970
C1739       C  0.90295809  0.94422906  0.43974443     0.85120
C1740       C  0.90182439  0.55566491  0.03619553     0.91390
O1741       O  0.95558255  0.97802495  0.40934888    -0.72370
O1742       O  0.54730250  0.52199578  0.41181382    -0.73350
O1743       O  0.98006774  0.54748657  0.41011882    -0.61960
O1744       O  0.52314952  0.95289845  0.41094960    -0.70380
O1745       O  0.54815497  0.96012586  0.35868780    -0.69930
O1746       O  0.95620440  0.53736547  0.35799553    -0.61180
O1747       O  0.54083307  0.54657690  0.35906698    -0.73690
O1748       O  0.96555335  0.95163129  0.35794364    -0.72470
Cu1749     Cu  0.00152182  0.00006364  0.41124537     1.04560
Cu1750     Cu  0.00278170  0.99907012  0.35347559     1.04330
C1751       C  0.94698062  0.95254037  0.38801767     0.93830
C1752       C  0.55742483  0.54677897  0.39044786     0.92970
C1753       C  0.95569958  0.55612024  0.38846392     0.85120
C1754       C  0.54754063  0.94272030  0.38976474     0.91390
O1755       O  0.53575981  0.86777743  0.44005082    -0.72370
O1756       O  0.96243053  0.86739161  0.03466885    -0.73350
O1757       O  0.95308530  0.86791111  0.44872277    -0.61960
O1758       O  0.54584433  0.86693062  0.02462082    -0.70380
O1759       O  0.52038698  0.91838896  0.03578406    -0.69930
O1760       O  0.97838653  0.92039823  0.44118293    -0.61180
O1761       O  0.95310310  0.91957801  0.00933792    -0.73690
O1762       O  0.54544765  0.91933635  0.46711604    -0.72470
Cu1763     Cu  0.99915773  0.86240443  0.48701135     1.04560
Cu1764     Cu  0.99935515  0.92028457  0.48836201     1.04330
C1765       C  0.55420075  0.89821240  0.44162536     0.93830
C1766       C  0.94438452  0.89810631  0.03441924     0.92970
C1767       C  0.95370892  0.89923761  0.43131375     0.85120
C1768       C  0.54534990  0.89714304  0.04398632     0.91390
C1769       C  0.63995532  0.60992718  0.14592489     0.24170
C1770       C  0.64786442  0.64737370  0.13688043    -0.23930
C1771       C  0.63131684  0.66218185  0.10543186     0.19080
C1772       C  0.61003091  0.64004377  0.08240719     0.24120
C1773       C  0.60212103  0.60259752  0.09145192    -0.23880
C1774       C  0.61866814  0.58778937  0.12290083     0.19020
F1775       F  0.61447401  0.55143530  0.13165925    -0.13840
F1776       F  0.65057579  0.59451188  0.17807006    -0.16200
F1777       F  0.59941307  0.65545856  0.05026088    -0.16200
F1778       F  0.63550986  0.69853612  0.09667379    -0.13840
C1779       C  0.85894712  0.65603856  0.09837019     0.24170
C1780       C  0.85206130  0.64828353  0.13599641    -0.23930
C1781       C  0.86952099  0.61742516  0.15140643     0.19080
C1782       C  0.89103858  0.59393891  0.12995163     0.24120
C1783       C  0.89792450  0.60169380  0.09232535    -0.23880
C1784       C  0.88046551  0.63255275  0.07691548     0.19020
F1785       F  0.88404080  0.64025389  0.04056446    -0.13840
F1786       F  0.84686393  0.68727704  0.08191029    -0.16200
F1787       F  0.90312099  0.56270034  0.14641190    -0.16200
F1788       F  0.86594726  0.60972494  0.18775781    -0.13840
C1789       C  0.62836586  0.91341936  0.11107394     0.24170
C1790       C  0.60015986  0.89544620  0.09222959    -0.23930
C1791       C  0.59662282  0.85660513  0.09663704     0.19080
C1792       C  0.62159249  0.83655407  0.11726925     0.24120
C1793       C  0.64980046  0.85452698  0.13611121    -0.23880
C1794       C  0.65333623  0.89336838  0.13170483     0.19020
F1795       F  0.68143869  0.91260562  0.14581878    -0.13840
F1796       F  0.63198817  0.95092149  0.10963934    -0.16200
F1797       F  0.61796834  0.79905224  0.11870646    -0.16200
F1798       F  0.56851974  0.83736896  0.08252262    -0.13840
C1799       C  0.64065548  0.60850158  0.39487679     0.24170
C1800       C  0.60338084  0.60306634  0.38842924    -0.23930
C1801       C  0.58813030  0.62105440  0.35794910     0.19080
C1802       C  0.60934013  0.64147288  0.33345480     0.24120
C1803       C  0.64661462  0.64690885  0.33990261    -0.23880
C1804       C  0.66186523  0.62892111  0.37038297     0.19020
F1805       F  0.69777140  0.63105817  0.37680132    -0.13840
F1806       F  0.65713331  0.59608327  0.42566204    -0.16200
F1807       F  0.59286248  0.65388885  0.30266851    -0.16200
F1808       F  0.55222403  0.61891820  0.35153101    -0.13840
C1809       C  0.85918195  0.89221431  0.14451817     0.24170
C1810       C  0.85265041  0.85393662  0.13839517    -0.23930
C1811       C  0.86986002  0.83703583  0.10825467     0.19080
C1812       C  0.89077750  0.85776198  0.08378247     0.24120
C1813       C  0.89731015  0.89603915  0.08990672    -0.23880
C1814       C  0.88009826  0.91294046  0.12004532     0.19020
F1815       F  0.88337177  0.95001321  0.12607275    -0.13840
F1816       F  0.84724778  0.91002191  0.17497776    -0.16200
F1817       F  0.90271243  0.83995538  0.05332249    -0.16200
F1818       F  0.86658425  0.79996357  0.10222558    -0.13840
C1819       C  0.60843867  0.85785952  0.39411183     0.24170
C1820       C  0.60221240  0.89605177  0.38767176    -0.23930
C1821       C  0.62024471  0.91291096  0.35810890     0.19080
C1822       C  0.64156042  0.89211975  0.33423110     0.24120
C1823       C  0.64778572  0.85392704  0.34067003    -0.23880
C1824       C  0.62975559  0.83706837  0.37023479     0.19020
F1825       F  0.63249171  0.79998804  0.37620334    -0.13840
F1826       F  0.59597698  0.84024702  0.42441479    -0.16200
F1827       F  0.65402126  0.90973312  0.30392838    -0.16200
F1828       F  0.61751081  0.94999177  0.35214207    -0.13840
C1829       C  0.84531499  0.64126019  0.38119324     0.24170
C1830       C  0.84988775  0.64615974  0.34280629    -0.23930
C1831       C  0.87948118  0.62843716  0.32621914     0.19080
C1832       C  0.90468193  0.60872262  0.34712906     0.24120
C1833       C  0.90010886  0.60382280  0.38551587    -0.23880
C1834       C  0.87051580  0.62154583  0.40210311     0.19020
F1835       F  0.86564458  0.61980878  0.43907438    -0.13840
F1836       F  0.81584203  0.65377081  0.39911725    -0.16200
F1837       F  0.93415485  0.59621156  0.32920527    -0.16200
F1838       F  0.88435250  0.63017427  0.28924792    -0.13840
C1839       C  0.88032386  0.86798860  0.40149342     0.24170
C1840       C  0.89858588  0.89794283  0.38515983    -0.23930
C1841       C  0.89187471  0.90527138  0.34755035     0.19080
C1842       C  0.86967356  0.88198966  0.32681136     0.24120
C1843       C  0.85141204  0.85203503  0.34314520    -0.23880
C1844       C  0.85812540  0.84470539  0.38075400     0.19020
F1845       F  0.84518037  0.81408866  0.39780863    -0.13840
F1846       F  0.88362726  0.86110268  0.43803369    -0.16200
F1847       F  0.86636685  0.88887712  0.29027167    -0.16200
F1848       F  0.90482473  0.93588560  0.33049514    -0.13840
O1849       O  0.79379226  0.71261605  0.87032690    -0.72370
O1850       O  0.70184823  0.78985210  0.86964505    -0.73350
O1851       O  0.70916419  0.70340041  0.86926142    -0.61960
O1852       O  0.78445004  0.79834770  0.87037113    -0.70380
O1853       O  0.79441168  0.77195404  0.81896391    -0.69930
O1854       O  0.70268973  0.72798120  0.81651521    -0.61180
O1855       O  0.72684499  0.79708029  0.81737908    -0.73690
O1856       O  0.76992618  0.70249280  0.81820528    -0.72470
Cu1857     Cu  0.74722337  0.75090866  0.87484857     1.04560
Cu1858     Cu  0.74847286  0.74991505  0.81707858     1.04330
C1859       C  0.79429597  0.69386059  0.83985895     0.93830
C1860       C  0.70245731  0.80725807  0.83856825     0.92970
C1861       C  0.69257008  0.70319744  0.83788187     0.85120
C1862       C  0.80301745  0.79743848  0.84029355     0.91390
O1863       O  0.82798109  0.77319947  0.69374927    -0.72370
O1864       O  0.82536288  0.72695900  0.78642637    -0.73350
O1865       O  0.82623521  0.79626824  0.76344491    -0.61960
O1866       O  0.82728081  0.70291215  0.71740226    -0.70380
O1867       O  0.87843507  0.71218616  0.69279887    -0.69930
O1868       O  0.87761732  0.78871797  0.78852023    -0.61180
O1869       O  0.87710468  0.70276637  0.77954989    -0.73690
O1870       O  0.87876904  0.79883691  0.70318787    -0.72470
Cu1871     Cu  0.82616305  0.74987413  0.74018507     1.04560
Cu1872     Cu  0.88282895  0.75051164  0.74105766     1.04330
C1873       C  0.84872915  0.79886121  0.68520277     0.93830
C1874       C  0.84642779  0.70233477  0.79658114     0.92970
C1875       C  0.84703172  0.80574957  0.78855938     0.85120
C1876       C  0.84816281  0.69431357  0.69212435     0.91390
O1877       O  0.72958337  0.83158474  0.69254260    -0.72370
O1878       O  0.77160196  0.82958058  0.78713551    -0.73350
O1879       O  0.70453589  0.83063998  0.76121543    -0.61960
O1880       O  0.79687221  0.83039759  0.71897477    -0.70380
O1881       O  0.78753871  0.88258281  0.69364400    -0.69930
O1882       O  0.71422985  0.88219902  0.78827787    -0.61180
O1883       O  0.79690305  0.88206647  0.77958786    -0.73690
O1884       O  0.70412774  0.88304293  0.70371017    -0.72350
Cu1885     Cu  0.75062434  0.82969143  0.73996038     1.04560
Cu1886     Cu  0.75082200  0.88757112  0.74130926     1.04330
C1887       C  0.70461876  0.85283035  0.68434476     0.93830
C1888       C  0.79628209  0.85074101  0.79699870     0.92970
C1889       C  0.69578793  0.85176446  0.78670753     0.85120
C1890       C  0.80558548  0.85186860  0.69389086     0.91390
O1891       O  0.62098546  0.71459009  0.78526686    -0.72370
O1892       O  0.62226075  0.79146363  0.69126317    -0.73350
O1893       O  0.62132662  0.70426631  0.69963417    -0.61960
O1894       O  0.62152240  0.80025713  0.77608814    -0.70380
O1895       O  0.67204314  0.77376639  0.78482061    -0.69930
O1896       O  0.67264190  0.72918012  0.69124888    -0.61180
O1897       O  0.67368688  0.79834170  0.71629978    -0.73690
O1898       O  0.67129200  0.70387673  0.75974428    -0.72470
Cu1899     Cu  0.61661531  0.75262172  0.73792093     1.04560
Cu1900     Cu  0.67307977  0.75130406  0.73807147     1.04330
C1901       C  0.65035829  0.69535980  0.78486538     0.93830
C1902       C  0.65291407  0.80862472  0.69162540     0.92970
C1903       C  0.65176797  0.70378047  0.68229338     0.85120
C1904       C  0.65162930  0.79952003  0.79384926     0.91390
O1905       O  0.71268921  0.61995838  0.69117708    -0.72370
O1906       O  0.78592559  0.61803354  0.78711649    -0.73350
O1907       O  0.70187513  0.61877501  0.77629819    -0.61960
O1908       O  0.79606867  0.61892647  0.70053907    -0.70380
O1909       O  0.77211944  0.67177038  0.69234216    -0.69930
O1910       O  0.72627888  0.67158624  0.78504063    -0.61180
O1911       O  0.79520373  0.67048811  0.76206826    -0.73690
O1912       O  0.70467135  0.67298075  0.71594463    -0.72470
Cu1913     Cu  0.74914805  0.61396463  0.73873809     1.04560
Cu1914     Cu  0.74964926  0.67233571  0.73894250     1.04330
C1915       C  0.69533015  0.65112017  0.69127785     0.93830
C1916       C  0.80356819  0.64905707  0.78745844     0.92970
C1917       C  0.70140409  0.65015937  0.79374820     0.85120
C1918       C  0.79643130  0.65012433  0.68276687     0.91390
O1919       O  0.79575309  0.72855442  0.66173642    -0.72370
O1920       O  0.70525823  0.77463733  0.66088366    -0.73350
O1921       O  0.72813641  0.70398152  0.65989297    -0.61960
O1922       O  0.77322483  0.79760871  0.66279109    -0.70380
O1923       O  0.79640032  0.79106375  0.60959484    -0.69930
O1924       O  0.70357652  0.71328394  0.60800704    -0.61180
O1925       O  0.71310656  0.80003720  0.60855919    -0.73690
O1926       O  0.78702915  0.70421528  0.60908950    -0.72470
Cu1927     Cu  0.75046564  0.75120319  0.66191016     1.04560
Cu1928     Cu  0.75012429  0.75215815  0.60392055     1.04330
C1929       C  0.80474703  0.70383230  0.63981015     0.93830
C1930       C  0.69625466  0.80005909  0.63965513     0.92970
C1931       C  0.70348565  0.69481803  0.63855139     0.85120
C1932       C  0.79715791  0.80786566  0.64118561     0.91390
C1933       C  0.82620466  0.82841063  0.81957711    -0.01910
C1934       C  0.92379026  0.92156809  0.90873021    -0.01910
C1935       C  0.82524205  0.67079541  0.81912383    -0.01910
C1936       C  0.92475322  0.57918571  0.90919819    -0.01910
C1937       C  0.67261998  0.83041394  0.81681827    -0.01910
C1938       C  0.57737406  0.91956383  0.91151975    -0.01910
C1939       C  0.82791758  0.83049014  0.66281383    -0.01910
C1940       C  0.92204736  0.91948476  0.56549219    -0.01910
C1941       C  0.67050227  0.67184767  0.81590236    -0.01910
C1942       C  0.57949258  0.57812759  0.91242885    -0.01910
C1943       C  0.67425253  0.83152119  0.66102954    -0.01910
C1944       C  0.57571178  0.91845179  0.56730736    -0.01910
C1945       C  0.82725408  0.67215055  0.66035190    -0.01910
C1946       C  0.92273186  0.57782653  0.56797009    -0.01910
C1947       C  0.67269876  0.67207023  0.66023253    -0.01910
C1948       C  0.57728726  0.57790128  0.56809880    -0.01910
O1949       O  0.62900689  0.53538318  0.94306609    -0.72370
O1950       O  0.62770950  0.95850889  0.53708383    -0.73350
O1951       O  0.62846450  0.94971866  0.95225996    -0.61960
O1952       O  0.62866080  0.54570527  0.52869928    -0.70380
O1953       O  0.57734503  0.52079192  0.53708207    -0.69930
O1954       O  0.57794593  0.97621088  0.94351854    -0.61180
O1955       O  0.57628664  0.95163452  0.51203873    -0.73690
O1956       O  0.57870007  0.54609859  0.96858696    -0.72470
Cu1957     Cu  0.63336524  0.99735259  0.99042898     1.04560
Cu1958     Cu  0.57690077  0.99867256  0.99026789     1.04330
C1959       C  0.59963483  0.55461468  0.94346647     0.93830
C1960       C  0.59705544  0.94134923  0.53671585     0.92970
C1961       C  0.59836082  0.95045689  0.93449333     0.85120
C1962       C  0.59821878  0.54619117  0.54603880     0.91390
O1963       O  0.97786816  0.57820513  0.53598325    -0.72370
O1964       O  0.52371432  0.57838999  0.94328782    -0.73350
O1965       O  0.54531717  0.57699209  0.51238518    -0.61960
O1966       O  0.95478802  0.57949051  0.96625579    -0.70380
O1967       O  0.96406981  0.63194521  0.94120923    -0.69930
O1968       O  0.53730033  0.63001477  0.53715273    -0.61180
O1969       O  0.54811935  0.63120023  0.95203263    -0.73690
O1970       O  0.95392153  0.63105034  0.52778614    -0.72470
Cu1971     Cu  0.50034101  0.57764010  0.98938436     1.04560
Cu1972     Cu  0.00084455  0.63601132  0.98958997     1.04330
C1973       C  0.95355669  0.59985205  0.54555759     0.93830
C1974       C  0.54859025  0.59981625  0.93458200     0.92970
C1975       C  0.55465805  0.59885218  0.53705254     0.85120
C1976       C  0.94642603  0.60092242  0.94086547     0.91390
O1977       O  0.95355636  0.95890850  0.61871807    -0.72370
O1978       O  0.54640534  0.53668699  0.62032142    -0.73350
O1979       O  0.96295334  0.54575954  0.61923376    -0.61960
O1980       O  0.53684846  0.94993364  0.61977110    -0.70380
O1981       O  0.54470785  0.97533670  0.56744991    -0.69930
O1982       O  0.95422975  0.52142082  0.56658674    -0.61180
O1983       O  0.52184805  0.54599191  0.56843467    -0.73690
O1984       O  0.97674042  0.95236672  0.56552511    -0.72470
Cu1985     Cu  0.99983161  0.99781315  0.62440338     1.04560
Cu1986     Cu  0.99950112  0.99877150  0.56641381     1.04330
C1987       C  0.95280378  0.94210856  0.58712615     0.93830
C1988       C  0.54649835  0.55515384  0.58977768     0.92970
C1989       C  0.94523646  0.54614347  0.58851255     0.85120
C1990       C  0.55370634  0.94991325  0.58867870     0.91390
O1991       O  0.92462913  0.52302124  0.94189432    -0.72370
O1992       O  0.92198891  0.97677696  0.53455944    -0.73350
O1993       O  0.92375005  0.95371000  0.96486307    -0.61960
O1994       O  0.92270799  0.54706560  0.51091916    -0.70380
O1995       O  0.87155134  0.53779380  0.53551824    -0.69930
O1996       O  0.87237241  0.96126049  0.93977800    -0.61180
O1997       O  0.87120365  0.95113862  0.52510884    -0.73690
O1998       O  0.87288737  0.54721515  0.94876761    -0.72470
Cu1999     Cu  0.92381739  0.00010330  0.98812442     1.04560
Cu2000     Cu  0.86715184  0.99946526  0.98724045     1.04330
C2001       C  0.90356548  0.54764631  0.93173871     0.93830
C2002       C  0.90123983  0.95111423  0.54310025     0.92970
C2003       C  0.90295809  0.94422906  0.93974443     0.85120
C2004       C  0.90182439  0.55566491  0.53619554     0.91390
O2005       O  0.95558255  0.97802495  0.90934888    -0.72370
O2006       O  0.54730250  0.52199577  0.91181382    -0.73350
O2007       O  0.98006774  0.54748657  0.91011882    -0.61960
O2008       O  0.52314952  0.95289845  0.91094960    -0.70380
O2009       O  0.54815497  0.96012586  0.85868780    -0.69930
O2010       O  0.95620440  0.53736546  0.85799552    -0.61180
O2011       O  0.54083308  0.54657689  0.85906698    -0.73690
O2012       O  0.96555335  0.95163129  0.85794364    -0.72470
Cu2013     Cu  0.00152181  0.00006364  0.91124537     1.04560
Cu2014     Cu  0.00278170  0.99907013  0.85347559     1.04330
C2015       C  0.94698062  0.95254037  0.88801767     0.93830
C2016       C  0.55742484  0.54677895  0.89044786     0.92970
C2017       C  0.95569958  0.55612024  0.88846391     0.85120
C2018       C  0.54754063  0.94272030  0.88976475     0.91390
O2019       O  0.53575981  0.86777743  0.94005083    -0.72370
O2020       O  0.96243053  0.86739160  0.53466885    -0.73350
O2021       O  0.95308530  0.86791111  0.94872277    -0.61960
O2022       O  0.54584433  0.86693062  0.52462081    -0.70380
O2023       O  0.52038698  0.91838895  0.53578406    -0.69930
O2024       O  0.97838652  0.92039824  0.94118293    -0.61180
O2025       O  0.95310310  0.91957801  0.50933791    -0.73690
O2026       O  0.54544765  0.91933635  0.96711605    -0.72470
Cu2027     Cu  0.99915773  0.86240443  0.98701136     1.04560
Cu2028     Cu  0.99935515  0.92028457  0.98836201     1.04330
C2029       C  0.55420075  0.89821240  0.94162537     0.93830
C2030       C  0.94438452  0.89810630  0.53441924     0.92970
C2031       C  0.95370892  0.89923761  0.93131375     0.85120
C2032       C  0.54534990  0.89714303  0.54398632     0.91390
C2033       C  0.63995532  0.60992719  0.64592489     0.24170
C2034       C  0.64786442  0.64737371  0.63688043    -0.23930
C2035       C  0.63131684  0.66218185  0.60543186     0.19080
C2036       C  0.61003091  0.64004377  0.58240719     0.24120
C2037       C  0.60212103  0.60259752  0.59145193    -0.23880
C2038       C  0.61866814  0.58778938  0.62290084     0.19020
F2039       F  0.61447401  0.55143531  0.63165926    -0.13840
F2040       F  0.65057579  0.59451189  0.67807006    -0.16200
F2041       F  0.59941308  0.65545855  0.55026087    -0.16200
F2042       F  0.63550987  0.69853612  0.59667377    -0.13840
C2043       C  0.85894712  0.65603856  0.59837019     0.24170
C2044       C  0.85206130  0.64828353  0.63599641    -0.23930
C2045       C  0.86952100  0.61742517  0.65140644     0.19080
C2046       C  0.89103859  0.59393892  0.62995164     0.24120
C2047       C  0.89792450  0.60169380  0.59232535    -0.23880
C2048       C  0.88046551  0.63255275  0.57691548     0.19020
F2049       F  0.88404079  0.64025388  0.54056446    -0.13840
F2050       F  0.84686392  0.68727703  0.58191028    -0.16200
F2051       F  0.90312101  0.56270036  0.64641192    -0.16200
F2052       F  0.86594727  0.60972496  0.68775781    -0.13840
C2053       C  0.62836585  0.91341937  0.61107395     0.24170
C2054       C  0.60015987  0.89544620  0.59222959    -0.23930
C2055       C  0.59662283  0.85660513  0.59663703     0.19080
C2056       C  0.62159250  0.83655407  0.61726925     0.24120
C2057       C  0.64980046  0.85452699  0.63611121    -0.23880
C2058       C  0.65333622  0.89336839  0.63170485     0.19020
F2059       F  0.68143866  0.91260564  0.64581881    -0.13840
F2060       F  0.63198816  0.95092150  0.60963936    -0.16200
F2061       F  0.61796837  0.79905225  0.61870645    -0.16200
F2062       F  0.56851977  0.83736895  0.58252259    -0.13840
C2063       C  0.64065549  0.60850157  0.89487678     0.24170
C2064       C  0.60338084  0.60306633  0.88842923    -0.23930
C2065       C  0.58813030  0.62105440  0.85794910     0.19080
C2066       C  0.60934013  0.64147287  0.83345479     0.24120
C2067       C  0.64661462  0.64690885  0.83990260    -0.23880
C2068       C  0.66186523  0.62892110  0.87038296     0.19020
F2069       F  0.69777141  0.63105816  0.87680130    -0.13840
F2070       F  0.65713332  0.59608325  0.92566202    -0.16200
F2071       F  0.59286248  0.65388885  0.80266851    -0.16200
F2072       F  0.55222403  0.61891819  0.85153100    -0.13840
C2073       C  0.85918195  0.89221431  0.64451817     0.24170
C2074       C  0.85265042  0.85393663  0.63839518    -0.23930
C2075       C  0.86986003  0.83703583  0.60825468     0.19080
C2076       C  0.89077750  0.85776198  0.58378247     0.24120
C2077       C  0.89731015  0.89603915  0.58990672    -0.23880
C2078       C  0.88009826  0.91294047  0.62004532     0.19020
F2079       F  0.88337176  0.95001322  0.62607274    -0.13840
F2080       F  0.84724777  0.91002192  0.67497775    -0.16200
F2081       F  0.90271244  0.83995538  0.55332250    -0.16200
F2082       F  0.86658426  0.79996357  0.60222561    -0.13840
C2083       C  0.60843866  0.85785952  0.89411183     0.24170
C2084       C  0.60221240  0.89605177  0.88767176    -0.23930
C2085       C  0.62024471  0.91291096  0.85810891     0.19080
C2086       C  0.64156042  0.89211975  0.83423111     0.24120
C2087       C  0.64778572  0.85392703  0.84067003    -0.23880
C2088       C  0.62975558  0.83706837  0.87023479     0.19020
F2089       F  0.63249170  0.79998804  0.87620333    -0.13840
F2090       F  0.59597696  0.84024701  0.92441479    -0.16200
F2091       F  0.65402126  0.90973312  0.80392839    -0.16200
F2092       F  0.61751081  0.94999177  0.85214208    -0.13840
C2093       C  0.84531499  0.64126019  0.88119324     0.24170
C2094       C  0.84988775  0.64615973  0.84280629    -0.23930
C2095       C  0.87948117  0.62843715  0.82621913     0.19080
C2096       C  0.90468193  0.60872261  0.84712905     0.24120
C2097       C  0.90010886  0.60382279  0.88551587    -0.23880
C2098       C  0.87051580  0.62154582  0.90210311     0.19020
F2099       F  0.86564459  0.61980877  0.93907437    -0.13840
F2100       F  0.81584204  0.65377081  0.89911725    -0.16200
F2101       F  0.93415485  0.59621154  0.82920526    -0.16200
F2102       F  0.88435250  0.63017427  0.78924791    -0.13840
C2103       C  0.88032385  0.86798861  0.90149343     0.24170
C2104       C  0.89858587  0.89794284  0.88515983    -0.23930
C2105       C  0.89187472  0.90527137  0.84755035     0.19080
C2106       C  0.86967356  0.88198965  0.82681137     0.24120
C2107       C  0.85141204  0.85203503  0.84314521    -0.23880
C2108       C  0.85812539  0.84470539  0.88075402     0.19020
F2109       F  0.84518035  0.81408868  0.89780866    -0.13840
F2110       F  0.88362725  0.86110269  0.93803370    -0.16200
F2111       F  0.86636686  0.88887710  0.79027167    -0.16200
F2112       F  0.90482474  0.93588558  0.83049513    -0.13840
loop_ 
_geom_bond_atom_site_label_1 
_geom_bond_atom_site_label_2 
_geom_bond_distance 
_geom_bond_site_symmetry_2 
_ccdc_geom_bond_type 
O1           Cu9   2.222       .  S
O1           C11   1.296       .  A
O2           Cu9   2.205       .  S
O2           C12   1.293       .  A
O3           Cu9   2.227       .  S
O3           C13   1.297       .  A
O4           Cu9   2.203       .  S
O4           C14   1.294       .  A
O5          Cu10   1.883       .  S
O5           C14   1.241       .  A
O6          Cu10   1.875       .  S
O6           C13   1.242       .  A
O7          Cu10   1.881       .  S
O7           C12   1.245       .  A
O8          Cu10   1.887       .  S
O8           C11   1.241       .  A
Cu9         Cu10   2.101       .  S
C11          C87   1.608       .  S
C12          C89   1.600       .  S
C13          C93   1.605       .  S
C14          C85   1.598       .  S
O15         Cu23   1.888       .  S
O15          C25   1.243       .  A
O16         Cu23   1.874       .  S
O16          C26   1.241       .  A
O17         Cu23   1.871       .  S
O17          C27   1.243       .  A
O18         Cu23   1.882       .  S
O18          C28   1.242       .  A
O19         Cu24   2.235       .  S
O19          C28   1.296       .  A
O20         Cu24   2.213       .  S
O20          C27   1.294       .  A
O21         Cu24   2.229       .  S
O21          C26   1.298       .  A
O22         Cu24   2.227       .  S
O22          C25   1.294       .  A
Cu23        Cu24   2.108       .  S
C25          C91   1.602       .  S
C26          C87   1.607       .  S
C27          C85   1.592       .  S
C28          C97   1.602       .  S
O29         Cu37   1.894       .  S
O29          C39   1.241       .  A
O30         Cu37   1.884       .  S
O30          C40   1.244       .  A
O31         Cu37   1.881       .  S
O31          C41   1.241       .  A
O32         Cu37   1.882       .  S
O32          C42   1.240       .  A
O33         Cu38   2.213       .  S
O33          C42   1.295       .  A
O34         Cu38   2.192       .  S
O34          C41   1.293       .  A
O35         Cu38   2.217       .  S
O35          C40   1.295       .  A
O36         Cu38   2.215       .  S
O36          C39   1.295       .  A
Cu37        Cu38   2.085       .  S
C39          C95   1.605       .  S
C40          C85   1.602       .  S
C41          C89   1.591       .  S
C42          C91   1.599       .  S
O43         Cu51   2.208       .  S
O43          C53   1.295       .  A
O44         Cu51   2.211       .  S
O44          C54   1.295       .  A
O45         Cu51   2.234       .  S
O45          C55   1.296       .  A
O46         Cu51   2.211       .  S
O46          C56   1.293       .  A
O47         Cu52   1.880       .  S
O47          C56   1.243       .  A
O48         Cu52   1.877       .  S
O48          C55   1.241       .  A
O49         Cu52   1.872       .  S
O49          C54   1.241       .  A
O50         Cu52   1.884       .  S
O50          C53   1.239       .  A
Cu51        Cu52   2.101       .  S
C53          C93   1.600       .  S
C54          C95   1.596       .  S
C55          C99   1.598       .  S
C56          C89   1.592       .  S
O57         Cu65   2.208       .  S
O57          C67   1.296       .  A
O58         Cu65   2.232       .  S
O58          C68   1.294       .  A
O59         Cu65   2.233       .  S
O59          C69   1.295       .  A
O60         Cu65   2.237       .  S
O60          C70   1.297       .  A
O61         Cu66   1.889       .  S
O61          C70   1.244       .  A
O62         Cu66   1.888       .  S
O62          C69   1.245       .  A
O63         Cu66   1.892       .  S
O63          C68   1.244       .  A
O64         Cu66   1.870       .  S
O64          C67   1.241       .  A
Cu65        Cu66   2.102       .  S
C67          C99   1.599       .  S
C68          C87   1.606       .  S
C69          C93   1.606       .  S
C70          C97   1.614       .  S
O71         Cu79   1.873       .  S
O71          C81   1.240       .  A
O72         Cu79   1.883       .  S
O72          C82   1.245       .  A
O73         Cu79   1.892       .  S
O73          C83   1.244       .  A
O74         Cu79   1.872       .  S
O74          C84   1.243       .  A
O75         Cu80   2.226       .  S
O75          C84   1.297       .  A
O76         Cu80   2.229       .  S
O76          C83   1.296       .  A
O77         Cu80   2.215       .  S
O77          C82   1.292       .  A
O78         Cu80   2.216       .  S
O78          C81   1.297       .  A
Cu79        Cu80   2.108       .  S
C81          C97   1.603       .  S
C82          C95   1.599       .  S
C83          C99   1.613       .  S
C84          C91   1.607       .  S
C85         C259   1.526       .  S
C86         C155   1.592       .  S
C86         C167   1.598       .  S
C86         C183   1.602       .  S
C86         C256   1.526       .  S
C87         C246   1.541       .  S
C88         C128   1.606       .  S
C88         C153   1.607       .  S
C88         C169   1.608       .  S
C88         C249   1.541       .  S
C89         C239   1.524       .  S
C90         C113   1.592       .  S
C90         C170   1.600       .  S
C90         C181   1.591       .  S
C90         C236   1.524       .  S
C91         C226   1.532       .  S
C92         C139   1.607       .  S
C92         C154   1.602       .  S
C92         C182   1.599       .  S
C92         C229   1.532       .  S
C93         C219   1.535       .  S
C94         C111   1.600       .  S
C94         C126   1.606       .  S
C94         C168   1.605       .  S
C94         C216   1.535       .  S
C95         C209   1.530       .  S
C96         C112   1.596       .  S
C96         C142   1.599       .  S
C96         C184   1.605       .  S
C96         C206   1.530       .  S
C97         C196   1.541       .  S
C98         C125   1.614       .  S
C98         C141   1.603       .  S
C98         C156   1.602       .  S
C98         C199   1.541       .  S
C99         C186   1.535       .  S
C100        C114   1.598       .  S
C100        C127   1.599       .  S
C100        C140   1.613       .  S
C100        C189   1.535       .  S
O101       Cu637   2.208   1_545  S
O101        C111   1.295       .  A
O102       Cu373   2.211   1_554  S
O102        C112   1.295       .  A
O103       Cu109   2.211       .  S
O103        C113   1.293       .  A
O104       Cu901   2.234   1_544  S
O104        C114   1.296       .  A
O105       Cu902   1.877   1_544  S
O105        C114   1.241       .  A
O106       Cu110   1.880       .  S
O106        C113   1.243       .  A
O107       Cu374   1.872   1_554  S
O107        C112   1.241       .  A
O108       Cu638   1.884   1_545  S
O108        C111   1.239       .  A
Cu109       O629   2.208       .  S
Cu109       O366   2.211       .  S
Cu109       O896   2.234       .  S
Cu109      Cu110   2.100       .  S
Cu110       O897   1.877       .  S
Cu110       O371   1.872       .  S
Cu110       O636   1.884       .  S
O115      Cu1443   1.889   1_554  S
O115        C125   1.244       .  A
O116       Cu123   1.888       .  S
O116        C126   1.245       .  A
O117       Cu387   1.870   1_554  S
O117        C127   1.241       .  A
O118      Cu1179   1.892       .  S
O118        C128   1.245       .  A
O119       Cu124   2.232       .  S
O119        C128   1.294       .  A
O120      Cu1444   2.208   1_554  S
O120        C127   1.296       .  A
O121      Cu1180   2.233       .  S
O121        C126   1.295       .  A
O122       Cu388   2.237   1_554  S
O122        C125   1.297       .  A
Cu123      O1435   1.889   1_455  S
Cu123       O381   1.870       .  S
Cu123      O1174   1.892   1_455  S
Cu123     Cu1180   2.102       .  S
Cu124      O1440   2.208       .  S
Cu124      O1177   2.233       .  S
Cu124       O386   2.237       .  S
Cu124     Cu1179   2.102       .  S
O129       Cu137   2.226       .  S
O129        C139   1.297       .  A
O130      Cu1721   2.229   1_445  S
O130        C140   1.296       .  A
O131       Cu665   2.216   1_545  S
O131        C141   1.297       .  A
O132      Cu1193   2.215   1_455  S
O132        C142   1.292       .  A
O133      Cu1194   1.883   1_455  S
O133        C142   1.245       .  A
O134       Cu666   1.873   1_545  S
O134        C141   1.240       .  A
O135      Cu1722   1.892   1_445  S
O135        C140   1.244       .  A
O136       Cu138   1.872       .  S
O136        C139   1.243       .  A
Cu137      O1714   2.229       .  S
Cu137       O659   2.216       .  S
Cu137      O1188   2.215       .  S
Cu137      Cu138   2.108       .  S
Cu138      O1189   1.883       .  S
Cu138       O662   1.873       .  S
Cu138      O1719   1.892       .  S
O143       Cu679   1.874       .  S
O143        C153   1.241       .  A
O144       Cu415   1.888   1_554  S
O144        C154   1.243       .  A
O145       Cu151   1.871       .  S
O145        C155   1.243       .  A
O146       Cu943   1.882   1_554  S
O146        C156   1.242       .  A
O147       Cu944   2.235   1_544  S
O147        C156   1.296       .  A
O148       Cu152   2.213       .  S
O148        C155   1.294       .  A
O149       Cu416   2.227   1_554  S
O149        C154   1.294       .  A
O150       Cu680   2.229   1_545  S
O150        C153   1.298       .  A
Cu151       O671   1.875       .  S
Cu151       O408   1.888       .  S
Cu151       O938   1.882       .  S
Cu151      Cu152   2.108       .  S
Cu152       O939   2.235       .  S
Cu152       O413   2.227       .  S
Cu152       O678   2.229       .  S
O157       Cu165   1.883       .  S
O157        C167   1.241       .  A
O158      Cu1749   1.875       .  S
O158        C168   1.242       .  A
O159       Cu693   1.887       .  S
O159        C169   1.241       .  A
O160      Cu1221   1.881       .  S
O160        C170   1.245       .  A
O161      Cu1222   2.205       .  S
O161        C170   1.293       .  A
O162       Cu694   2.222   1_545  S
O162        C169   1.296       .  A
O163      Cu1750   2.227   1_545  S
O163        C168   1.297       .  A
O164       Cu166   2.203       .  S
O164        C167   1.294       .  A
Cu165      O1742   1.875       .  S
Cu165       O687   1.887       .  S
Cu165      O1216   1.881       .  S
Cu165      Cu166   2.101       .  S
Cu166      O1217   2.205       .  S
Cu166       O690   2.222       .  S
Cu166      O1747   2.227       .  S
O171      Cu1235   2.192   1_455  S
O171        C181   1.293       .  A
O172       Cu443   2.213   1_554  S
O172        C182   1.295       .  A
O173       Cu179   2.217       .  S
O173        C183   1.295       .  A
O174      Cu1499   2.215   1_454  S
O174        C184   1.295       .  A
O175      Cu1500   1.894   1_454  S
O175        C184   1.241       .  A
O176       Cu180   1.884       .  S
O176        C183   1.244       .  A
O177       Cu444   1.882   1_554  S
O177        C182   1.240       .  A
O178      Cu1236   1.880   1_455  S
O178        C181   1.241       .  A
Cu179      O1227   2.192       .  S
Cu179       O436   2.213       .  S
Cu179      O1494   2.215       .  S
Cu179      Cu180   2.085       .  S
Cu180      O1495   1.894       .  S
Cu180       O441   1.882       .  S
Cu180      O1234   1.880       .  S
C185        C186   1.419       .  A
C185        C190   1.399       .  A
C185        F192   1.354       .  S
C186        C187   1.405       .  A
C187        C188   1.399       .  A
C187        F194   1.357       .  S
C188        C189   1.419       .  A
C188        F193   1.354       .  S
C189        C190   1.405       .  A
C190        F191   1.357       .  S
C195        C196   1.420       .  A
C195        C200   1.401       .  A
C195        F202   1.353       .  S
C196        C197   1.406       .  A
C197        C198   1.401       .  A
C197        F204   1.357       .  S
C198        C199   1.420       .  A
C198        F203   1.353       .  S
C199        C200   1.406       .  A
C200        F201   1.357       .  S
C205        C206   1.408       .  A
C205        C210   1.397       .  A
C205        F212   1.358       .  S
C206        C207   1.414       .  A
C207        C208   1.397       .  A
C207        F214   1.353       .  S
C208        C209   1.408       .  A
C208        F213   1.358       .  S
C209        C210   1.414       .  A
C210        F211   1.353       .  S
C215        C216   1.419       .  A
C215        C220   1.399       .  A
C215        F222   1.353       .  S
C216        C217   1.405       .  A
C217        C218   1.399       .  A
C217        F224   1.357       .  S
C218        C219   1.419       .  A
C218        F223   1.353       .  S
C219        C220   1.405       .  A
C220        F221   1.357       .  S
C225        C226   1.416       .  A
C225        C230   1.398       .  A
C225        F232   1.353       .  S
C226        C227   1.407       .  A
C227        C228   1.398       .  A
C227        F234   1.358       .  S
C228        C229   1.416       .  A
C228        F233   1.353       .  S
C229        C230   1.407       .  A
C230        F231   1.358       .  S
C235        C236   1.415       .  A
C235        C240   1.394       .  A
C235        F242   1.354       .  S
C236        C237   1.405       .  A
C237        C238   1.394       .  A
C237        F244   1.357       .  S
C238        C239   1.415       .  A
C238        F243   1.354       .  S
C239        C240   1.405       .  A
C240        F241   1.357       .  S
C245        C246   1.417       .  A
C245        C250   1.402       .  A
C245        F252   1.353       .  S
C246        C247   1.408       .  A
C247        C248   1.402       .  A
C247        F254   1.358       .  S
C248        C249   1.417       .  A
C248        F253   1.353       .  S
C249        C250   1.408       .  A
C250        F251   1.358       .  S
C255        C256   1.406       .  A
C255        C260   1.395       .  A
C255        F262   1.357       .  S
C256        C257   1.415       .  A
C257        C258   1.395       .  A
C257        F264   1.354       .  S
C258        C259   1.406       .  A
C258        F263   1.357       .  S
C259        C260   1.415       .  A
C260        F261   1.354       .  S
O265       Cu273   2.222       .  S
O265        C275   1.296       .  A
O266       Cu273   2.205       .  S
O266        C276   1.293       .  A
O267       Cu273   2.227       .  S
O267        C277   1.297       .  A
O268       Cu273   2.203       .  S
O268        C278   1.294       .  A
O269       Cu274   1.883       .  S
O269        C278   1.241       .  A
O270       Cu274   1.875       .  S
O270        C277   1.242       .  A
O271       Cu274   1.881       .  S
O271        C276   1.245       .  A
O272       Cu274   1.887       .  S
O272        C275   1.241       .  A
Cu273      Cu274   2.101       .  S
C275        C351   1.608       .  S
C276        C353   1.600       .  S
C277        C357   1.605       .  S
C278        C349   1.598       .  S
O279       Cu287   1.888       .  S
O279        C289   1.243       .  A
O280       Cu287   1.874       .  S
O280        C290   1.241       .  A
O281       Cu287   1.871       .  S
O281        C291   1.243       .  A
O282       Cu287   1.882       .  S
O282        C292   1.242       .  A
O283       Cu288   2.235       .  S
O283        C292   1.296       .  A
O284       Cu288   2.213       .  S
O284        C291   1.294       .  A
O285       Cu288   2.229       .  S
O285        C290   1.298       .  A
O286       Cu288   2.227       .  S
O286        C289   1.294       .  A
Cu287      Cu288   2.108       .  S
C289        C355   1.602       .  S
C290        C351   1.607       .  S
C291        C349   1.592       .  S
C292        C361   1.602       .  S
O293       Cu301   1.894       .  S
O293        C303   1.241       .  A
O294       Cu301   1.884       .  S
O294        C304   1.244       .  A
O295       Cu301   1.881       .  S
O295        C305   1.241       .  A
O296       Cu301   1.882       .  S
O296        C306   1.240       .  A
O297       Cu302   2.213       .  S
O297        C306   1.295       .  A
O298       Cu302   2.192       .  S
O298        C305   1.293       .  A
O299       Cu302   2.217       .  S
O299        C304   1.295       .  A
O300       Cu302   2.215       .  S
O300        C303   1.295       .  A
Cu301      Cu302   2.085       .  S
C303        C359   1.605       .  S
C304        C349   1.602       .  S
C305        C353   1.591       .  S
C306        C355   1.599       .  S
O307       Cu315   2.208       .  S
O307        C317   1.295       .  A
O308       Cu315   2.211       .  S
O308        C318   1.295       .  A
O309       Cu315   2.234       .  S
O309        C319   1.296       .  A
O310       Cu315   2.211       .  S
O310        C320   1.293       .  A
O311       Cu316   1.880       .  S
O311        C320   1.243       .  A
O312       Cu316   1.877       .  S
O312        C319   1.241       .  A
O313       Cu316   1.872       .  S
O313        C318   1.241       .  A
O314       Cu316   1.884       .  S
O314        C317   1.239       .  A
Cu315      Cu316   2.101       .  S
C317        C357   1.600       .  S
C318        C359   1.596       .  S
C319        C363   1.598       .  S
C320        C353   1.592       .  S
O321       Cu329   2.208       .  S
O321        C331   1.296       .  A
O322       Cu329   2.232       .  S
O322        C332   1.294       .  A
O323       Cu329   2.233       .  S
O323        C333   1.295       .  A
O324       Cu329   2.237       .  S
O324        C334   1.297       .  A
O325       Cu330   1.889       .  S
O325        C334   1.244       .  A
O326       Cu330   1.888       .  S
O326        C333   1.245       .  A
O327       Cu330   1.892       .  S
O327        C332   1.244       .  A
O328       Cu330   1.870       .  S
O328        C331   1.241       .  A
Cu329      Cu330   2.102       .  S
C331        C363   1.599       .  S
C332        C351   1.606       .  S
C333        C357   1.606       .  S
C334        C361   1.614       .  S
O335       Cu343   1.873       .  S
O335        C345   1.240       .  A
O336       Cu343   1.883       .  S
O336        C346   1.245       .  A
O337       Cu343   1.892       .  S
O337        C347   1.244       .  A
O338       Cu343   1.872       .  S
O338        C348   1.243       .  A
O339       Cu344   2.226       .  S
O339        C348   1.297       .  A
O340       Cu344   2.229       .  S
O340        C347   1.296       .  A
O341       Cu344   2.215       .  S
O341        C346   1.292       .  A
O342       Cu344   2.216       .  S
O342        C345   1.297       .  A
Cu343      Cu344   2.108       .  S
C345        C361   1.603       .  S
C346        C359   1.599       .  S
C347        C363   1.613       .  S
C348        C355   1.607       .  S
C349        C523   1.526       .  S
C350        C419   1.592       .  S
C350        C431   1.598       .  S
C350        C447   1.602       .  S
C350        C520   1.526       .  S
C351        C510   1.541       .  S
C352        C392   1.606       .  S
C352        C417   1.607       .  S
C352        C433   1.608       .  S
C352        C513   1.541       .  S
C353        C503   1.524       .  S
C354        C377   1.592       .  S
C354        C434   1.600       .  S
C354        C445   1.591       .  S
C354        C500   1.524       .  S
C355        C490   1.532       .  S
C356        C403   1.607       .  S
C356        C418   1.602       .  S
C356        C446   1.599       .  S
C356        C493   1.532       .  S
C357        C483   1.535       .  S
C358        C375   1.600       .  S
C358        C390   1.606       .  S
C358        C432   1.605       .  S
C358        C480   1.535       .  S
C359        C473   1.530       .  S
C360        C376   1.596       .  S
C360        C406   1.599       .  S
C360        C448   1.605       .  S
C360        C470   1.530       .  S
C361        C460   1.541       .  S
C362        C389   1.614       .  S
C362        C405   1.603       .  S
C362        C420   1.602       .  S
C362        C463   1.541       .  S
C363        C450   1.535       .  S
C364        C378   1.598       .  S
C364        C391   1.599       .  S
C364        C404   1.613       .  S
C364        C453   1.535       .  S
O365       Cu901   2.208   1_545  S
O365        C375   1.295       .  A
O366        C376   1.295       .  A
O367       Cu373   2.211       .  S
O367        C377   1.293       .  A
O368       Cu637   2.234   1_545  S
O368        C378   1.296       .  A
O369       Cu638   1.877   1_545  S
O369        C378   1.241       .  A
O370       Cu374   1.880       .  S
O370        C377   1.243       .  A
O371        C376   1.241       .  A
O372       Cu902   1.884   1_545  S
O372        C375   1.239       .  A
Cu373       O893   2.208       .  S
Cu373       O632   2.234   1_556  S
Cu373      Cu374   2.100       .  S
Cu374       O633   1.877   1_556  S
Cu374       O900   1.884       .  S
O379      Cu1179   1.889       .  S
O379        C389   1.244       .  A
O380       Cu387   1.888       .  S
O380        C390   1.245       .  A
O381        C391   1.241       .  A
O382      Cu1443   1.892       .  S
O382        C392   1.245       .  A
O383       Cu388   2.232       .  S
O383        C392   1.294       .  A
O384      Cu1180   2.208       .  S
O384        C391   1.296       .  A
O385      Cu1444   2.233       .  S
O385        C390   1.295       .  A
O386        C389   1.297       .  A
Cu387      O1171   1.889   1_456  S
Cu387      O1438   1.892   1_455  S
Cu387     Cu1444   2.102       .  S
Cu388      O1176   2.208   1_556  S
Cu388      O1441   2.233       .  S
Cu388     Cu1443   2.102       .  S
O393       Cu401   2.226       .  S
O393        C403   1.297       .  A
O394      Cu1985   2.229   1_445  S
O394        C404   1.296       .  A
O395       Cu929   2.216   1_545  S
O395        C405   1.297       .  A
O396      Cu1457   2.215   1_455  S
O396        C406   1.292       .  A
O397      Cu1458   1.883   1_455  S
O397        C406   1.245       .  A
O398       Cu930   1.873   1_545  S
O398        C405   1.240       .  A
O399      Cu1986   1.892   1_445  S
O399        C404   1.244       .  A
O400       Cu402   1.872       .  S
O400        C403   1.243       .  A
Cu401      O1978   2.229       .  S
Cu401       O923   2.216       .  S
Cu401      O1452   2.215       .  S
Cu401      Cu402   2.108       .  S
Cu402      O1453   1.883       .  S
Cu402       O926   1.873       .  S
Cu402      O1983   1.892       .  S
O407       Cu943   1.874       .  S
O407        C417   1.241       .  A
O408        C418   1.243       .  A
O409       Cu415   1.871       .  S
O409        C419   1.243       .  A
O410       Cu679   1.882       .  S
O410        C420   1.242       .  A
O411       Cu680   2.235   1_545  S
O411        C420   1.296       .  A
O412       Cu416   2.213       .  S
O412        C419   1.294       .  A
O413        C418   1.294       .  A
O414       Cu944   2.229   1_545  S
O414        C417   1.298       .  A
Cu415       O935   1.875       .  S
Cu415       O674   1.882   1_556  S
Cu415      Cu416   2.108       .  S
Cu416       O675   2.235   1_556  S
Cu416       O942   2.229       .  S
O421       Cu429   1.883       .  S
O421        C431   1.241       .  A
O422      Cu2013   1.875       .  S
O422        C432   1.242       .  A
O423       Cu957   1.887       .  S
O423        C433   1.241       .  A
O424      Cu1485   1.881       .  S
O424        C434   1.245       .  A
O425      Cu1486   2.205       .  S
O425        C434   1.293       .  A
O426       Cu958   2.222   1_545  S
O426        C433   1.296       .  A
O427      Cu2014   2.227   1_545  S
O427        C432   1.297       .  A
O428       Cu430   2.203       .  S
O428        C431   1.294       .  A
Cu429      O2006   1.875       .  S
Cu429       O951   1.887       .  S
Cu429      O1480   1.881       .  S
Cu429      Cu430   2.101       .  S
Cu430      O1481   2.205       .  S
Cu430       O954   2.222       .  S
Cu430      O2011   2.227       .  S
O435      Cu1499   2.192   1_455  S
O435        C445   1.293       .  A
O436        C446   1.295       .  A
O437       Cu443   2.217       .  S
O437        C447   1.295       .  A
O438      Cu1235   2.215   1_455  S
O438        C448   1.295       .  A
O439      Cu1236   1.894   1_455  S
O439        C448   1.241       .  A
O440       Cu444   1.884       .  S
O440        C447   1.244       .  A
O441        C446   1.240       .  A
O442      Cu1500   1.880   1_455  S
O442        C445   1.241       .  A
Cu443      O1491   2.192       .  S
Cu443      O1230   2.215   1_556  S
Cu443      Cu444   2.085       .  S
Cu444      O1231   1.894   1_556  S
Cu444      O1498   1.880       .  S
C449        C450   1.419       .  A
C449        C454   1.399       .  A
C449        F456   1.354       .  S
C450        C451   1.405       .  A
C451        C452   1.399       .  A
C451        F458   1.357       .  S
C452        C453   1.419       .  A
C452        F457   1.354       .  S
C453        C454   1.405       .  A
C454        F455   1.357       .  S
C459        C460   1.420       .  A
C459        C464   1.401       .  A
C459        F466   1.353       .  S
C460        C461   1.406       .  A
C461        C462   1.401       .  A
C461        F468   1.357       .  S
C462        C463   1.420       .  A
C462        F467   1.353       .  S
C463        C464   1.406       .  A
C464        F465   1.357       .  S
C469        C470   1.408       .  A
C469        C474   1.397       .  A
C469        F476   1.358       .  S
C470        C471   1.414       .  A
C471        C472   1.397       .  A
C471        F478   1.353       .  S
C472        C473   1.408       .  A
C472        F477   1.358       .  S
C473        C474   1.414       .  A
C474        F475   1.353       .  S
C479        C480   1.419       .  A
C479        C484   1.399       .  A
C479        F486   1.353       .  S
C480        C481   1.405       .  A
C481        C482   1.399       .  A
C481        F488   1.357       .  S
C482        C483   1.419       .  A
C482        F487   1.353       .  S
C483        C484   1.405       .  A
C484        F485   1.357       .  S
C489        C490   1.416       .  A
C489        C494   1.398       .  A
C489        F496   1.353       .  S
C490        C491   1.407       .  A
C491        C492   1.398       .  A
C491        F498   1.358       .  S
C492        C493   1.416       .  A
C492        F497   1.353       .  S
C493        C494   1.407       .  A
C494        F495   1.358       .  S
C499        C500   1.415       .  A
C499        C504   1.394       .  A
C499        F506   1.354       .  S
C500        C501   1.405       .  A
C501        C502   1.394       .  A
C501        F508   1.357       .  S
C502        C503   1.415       .  A
C502        F507   1.354       .  S
C503        C504   1.405       .  A
C504        F505   1.357       .  S
C509        C510   1.417       .  A
C509        C514   1.402       .  A
C509        F516   1.353       .  S
C510        C511   1.408       .  A
C511        C512   1.402       .  A
C511        F518   1.358       .  S
C512        C513   1.417       .  A
C512        F517   1.353       .  S
C513        C514   1.408       .  A
C514        F515   1.358       .  S
C519        C520   1.406       .  A
C519        C524   1.395       .  A
C519        F526   1.357       .  S
C520        C521   1.415       .  A
C521        C522   1.395       .  A
C521        F528   1.354       .  S
C522        C523   1.406       .  A
C522        F527   1.357       .  S
C523        C524   1.415       .  A
C524        F525   1.354       .  S
O529       Cu537   2.222       .  S
O529        C539   1.296       .  A
O530       Cu537   2.205       .  S
O530        C540   1.293       .  A
O531       Cu537   2.227       .  S
O531        C541   1.297       .  A
O532       Cu537   2.203       .  S
O532        C542   1.294       .  A
O533       Cu538   1.883       .  S
O533        C542   1.241       .  A
O534       Cu538   1.875       .  S
O534        C541   1.242       .  A
O535       Cu538   1.881       .  S
O535        C540   1.245       .  A
O536       Cu538   1.887       .  S
O536        C539   1.241       .  A
Cu537      Cu538   2.101       .  S
C539        C615   1.608       .  S
C540        C617   1.600       .  S
C541        C621   1.605       .  S
C542        C613   1.598       .  S
O543       Cu551   1.888       .  S
O543        C553   1.243       .  A
O544       Cu551   1.875       .  S
O544        C554   1.241       .  A
O545       Cu551   1.871       .  S
O545        C555   1.243       .  A
O546       Cu551   1.882       .  S
O546        C556   1.242       .  A
O547       Cu552   2.235       .  S
O547        C556   1.296       .  A
O548       Cu552   2.213       .  S
O548        C555   1.294       .  A
O549       Cu552   2.229       .  S
O549        C554   1.298       .  A
O550       Cu552   2.227       .  S
O550        C553   1.294       .  A
Cu551      Cu552   2.108       .  S
C553        C619   1.602       .  S
C554        C615   1.607       .  S
C555        C613   1.592       .  S
C556        C625   1.602       .  S
O557       Cu565   1.894       .  S
O557        C567   1.241       .  A
O558       Cu565   1.884       .  S
O558        C568   1.244       .  A
O559       Cu565   1.881       .  S
O559        C569   1.241       .  A
O560       Cu565   1.882       .  S
O560        C570   1.240       .  A
O561       Cu566   2.213       .  S
O561        C570   1.295       .  A
O562       Cu566   2.192       .  S
O562        C569   1.293       .  A
O563       Cu566   2.217       .  S
O563        C568   1.295       .  A
O564       Cu566   2.215       .  S
O564        C567   1.295       .  A
Cu565      Cu566   2.085       .  S
C567        C623   1.605       .  S
C568        C613   1.602       .  S
C569        C617   1.591       .  S
C570        C619   1.599       .  S
O571       Cu579   2.208       .  S
O571        C581   1.295       .  A
O572       Cu579   2.211       .  S
O572        C582   1.295       .  A
O573       Cu579   2.234       .  S
O573        C583   1.296       .  A
O574       Cu579   2.211       .  S
O574        C584   1.293       .  A
O575       Cu580   1.881       .  S
O575        C584   1.243       .  A
O576       Cu580   1.877       .  S
O576        C583   1.241       .  A
O577       Cu580   1.872       .  S
O577        C582   1.241       .  A
O578       Cu580   1.884       .  S
O578        C581   1.239       .  A
Cu579      Cu580   2.101       .  S
C581        C621   1.600       .  S
C582        C623   1.596       .  S
C583        C627   1.598       .  S
C584        C617   1.592       .  S
O585       Cu593   2.208       .  S
O585        C595   1.296       .  A
O586       Cu593   2.232       .  S
O586        C596   1.294       .  A
O587       Cu593   2.233       .  S
O587        C597   1.295       .  A
O588       Cu593   2.237       .  S
O588        C598   1.297       .  A
O589       Cu594   1.889       .  S
O589        C598   1.244       .  A
O590       Cu594   1.888       .  S
O590        C597   1.245       .  A
O591       Cu594   1.892       .  S
O591        C596   1.245       .  A
O592       Cu594   1.870       .  S
O592        C595   1.241       .  A
Cu593      Cu594   2.102       .  S
C595        C627   1.599       .  S
C596        C615   1.606       .  S
C597        C621   1.606       .  S
C598        C625   1.614       .  S
O599       Cu607   1.873       .  S
O599        C609   1.240       .  A
O600       Cu607   1.883       .  S
O600        C610   1.245       .  A
O601       Cu607   1.892       .  S
O601        C611   1.244       .  A
O602       Cu607   1.872       .  S
O602        C612   1.243       .  A
O603       Cu608   2.226       .  S
O603        C612   1.297       .  A
O604       Cu608   2.229       .  S
O604        C611   1.296       .  A
O605       Cu608   2.215       .  S
O605        C610   1.292       .  A
O606       Cu608   2.216       .  S
O606        C609   1.297       .  A
Cu607      Cu608   2.108       .  S
C609        C625   1.603       .  S
C610        C623   1.599       .  S
C611        C627   1.613       .  S
C612        C619   1.607       .  S
C613        C787   1.526       .  S
C614        C683   1.592       .  S
C614        C695   1.598       .  S
C614        C711   1.602       .  S
C614        C784   1.526       .  S
C615        C774   1.541       .  S
C616        C656   1.606       .  S
C616        C681   1.607       .  S
C616        C697   1.608       .  S
C616        C777   1.541       .  S
C617        C767   1.524       .  S
C618        C641   1.592       .  S
C618        C698   1.600       .  S
C618        C709   1.591       .  S
C618        C764   1.524       .  S
C619        C754   1.532       .  S
C620        C667   1.607       .  S
C620        C682   1.602       .  S
C620        C710   1.599       .  S
C620        C757   1.532       .  S
C621        C747   1.535       .  S
C622        C639   1.600       .  S
C622        C654   1.606       .  S
C622        C696   1.605       .  S
C622        C744   1.535       .  S
C623        C737   1.530       .  S
C624        C640   1.596       .  S
C624        C670   1.599       .  S
C624        C712   1.605       .  S
C624        C734   1.530       .  S
C625        C724   1.541       .  S
C626        C653   1.614       .  S
C626        C669   1.603       .  S
C626        C684   1.602       .  S
C626        C727   1.541       .  S
C627        C714   1.535       .  S
C628        C642   1.598       .  S
C628        C655   1.599       .  S
C628        C668   1.613       .  S
C628        C717   1.535       .  S
O629        C639   1.295       .  A
O630       Cu901   2.211   1_554  S
O630        C640   1.295       .  A
O631       Cu637   2.211       .  S
O631        C641   1.293       .  A
O632        C642   1.296       .  A
O633        C642   1.241       .  A
O634       Cu638   1.881       .  S
O634        C641   1.243       .  A
O635       Cu902   1.872   1_554  S
O635        C640   1.241       .  A
O636        C639   1.239       .  A
Cu637       O894   2.211       .  S
Cu637      Cu638   2.101       .  S
Cu638       O899   1.872       .  S
O643      Cu1971   1.889   1_554  S
O643        C653   1.244       .  A
O644       Cu651   1.888       .  S
O644        C654   1.245       .  A
O645       Cu915   1.870   1_554  S
O645        C655   1.241       .  A
O646      Cu1707   1.892       .  S
O646        C656   1.245       .  A
O647       Cu652   2.232       .  S
O647        C656   1.294       .  A
O648      Cu1972   2.208   1_554  S
O648        C655   1.296       .  A
O649      Cu1708   2.233       .  S
O649        C654   1.295       .  A
O650       Cu916   2.237   1_554  S
O650        C653   1.297       .  A
Cu651      O1963   1.889   1_455  S
Cu651       O909   1.870       .  S
Cu651      O1702   1.892   1_455  S
Cu651     Cu1708   2.102       .  S
Cu652      O1968   2.208       .  S
Cu652      O1705   2.233       .  S
Cu652       O914   2.237       .  S
Cu652     Cu1707   2.102       .  S
O657       Cu665   2.226       .  S
O657        C667   1.297       .  A
O658      Cu1193   2.229   1_455  S
O658        C668   1.296       .  A
O659        C669   1.297       .  A
O660      Cu1721   2.215   1_455  S
O660        C670   1.292       .  A
O661      Cu1722   1.883   1_455  S
O661        C670   1.245       .  A
O662        C669   1.240       .  A
O663      Cu1194   1.892   1_455  S
O663        C668   1.244       .  A
O664       Cu666   1.872       .  S
O664        C667   1.243       .  A
Cu665      O1186   2.229   1_565  S
Cu665      O1716   2.215       .  S
Cu665      Cu666   2.108       .  S
Cu666      O1717   1.883       .  S
Cu666      O1191   1.892   1_565  S
O671        C681   1.241       .  A
O672       Cu943   1.888   1_564  S
O672        C682   1.243       .  A
O673       Cu679   1.871   1_565  S
O673        C683   1.243       .  A
O674        C684   1.242       .  A
O675        C684   1.296       .  A
O676       Cu680   2.213       .  S
O676        C683   1.294       .  A
O677       Cu944   2.227   1_554  S
O677        C682   1.294       .  A
O678        C681   1.298       .  A
Cu679       O936   1.888   1_545  S
Cu679      Cu680   2.108   1_545  S
Cu680       O941   2.227       .  S
O685       Cu693   1.883   1_565  S
O685        C695   1.241       .  A
O686      Cu1221   1.875       .  S
O686        C696   1.242       .  A
O687        C697   1.241       .  A
O688      Cu1749   1.881   1_565  S
O688        C698   1.245       .  A
O689      Cu1750   2.205       .  S
O689        C698   1.293       .  A
O690        C697   1.296       .  A
O691      Cu1222   2.227       .  S
O691        C696   1.297       .  A
O692       Cu694   2.203       .  S
O692        C695   1.294       .  A
Cu693      O1214   1.875       .  S
Cu693      O1744   1.881   1_545  S
Cu693      Cu694   2.101   1_545  S
Cu694      O1745   2.205       .  S
Cu694      O1219   2.227   1_565  S
O699      Cu1763   2.192   1_455  S
O699        C709   1.293       .  A
O700       Cu971   2.213   1_554  S
O700        C710   1.295       .  A
O701       Cu707   2.217       .  S
O701        C711   1.295       .  A
O702      Cu2027   2.215   1_454  S
O702        C712   1.295       .  A
O703      Cu2028   1.894   1_454  S
O703        C712   1.241       .  A
O704       Cu708   1.884       .  S
O704        C711   1.244       .  A
O705       Cu972   1.882   1_554  S
O705        C710   1.240       .  A
O706      Cu1764   1.881   1_455  S
O706        C709   1.241       .  A
Cu707      O1755   2.192       .  S
Cu707       O964   2.213       .  S
Cu707      O2022   2.215       .  S
Cu707      Cu708   2.085       .  S
Cu708      O2023   1.894       .  S
Cu708       O969   1.882       .  S
Cu708      O1762   1.881       .  S
C713        C714   1.419       .  A
C713        C718   1.399       .  A
C713        F720   1.354       .  S
C714        C715   1.405       .  A
C715        C716   1.399       .  A
C715        F722   1.357       .  S
C716        C717   1.419       .  A
C716        F721   1.354       .  S
C717        C718   1.405       .  A
C718        F719   1.357       .  S
C723        C724   1.420       .  A
C723        C728   1.401       .  A
C723        F730   1.353       .  S
C724        C725   1.406       .  A
C725        C726   1.401       .  A
C725        F732   1.357       .  S
C726        C727   1.420       .  A
C726        F731   1.353       .  S
C727        C728   1.406       .  A
C728        F729   1.357       .  S
C733        C734   1.408       .  A
C733        C738   1.397       .  A
C733        F740   1.358       .  S
C734        C735   1.414       .  A
C735        C736   1.397       .  A
C735        F742   1.353       .  S
C736        C737   1.408       .  A
C736        F741   1.358       .  S
C737        C738   1.414       .  A
C738        F739   1.353       .  S
C743        C744   1.419       .  A
C743        C748   1.399       .  A
C743        F750   1.353       .  S
C744        C745   1.405       .  A
C745        C746   1.399       .  A
C745        F752   1.357       .  S
C746        C747   1.419       .  A
C746        F751   1.353       .  S
C747        C748   1.405       .  A
C748        F749   1.357       .  S
C753        C754   1.416       .  A
C753        C758   1.398       .  A
C753        F760   1.353       .  S
C754        C755   1.407       .  A
C755        C756   1.398       .  A
C755        F762   1.358       .  S
C756        C757   1.416       .  A
C756        F761   1.353       .  S
C757        C758   1.407       .  A
C758        F759   1.358       .  S
C763        C764   1.415       .  A
C763        C768   1.394       .  A
C763        F770   1.354       .  S
C764        C765   1.405       .  A
C765        C766   1.394       .  A
C765        F772   1.357       .  S
C766        C767   1.415       .  A
C766        F771   1.354       .  S
C767        C768   1.405       .  A
C768        F769   1.357       .  S
C773        C774   1.417       .  A
C773        C778   1.402       .  A
C773        F780   1.353       .  S
C774        C775   1.408       .  A
C775        C776   1.402       .  A
C775        F782   1.358       .  S
C776        C777   1.417       .  A
C776        F781   1.353       .  S
C777        C778   1.408       .  A
C778        F779   1.358       .  S
C783        C784   1.406       .  A
C783        C788   1.395       .  A
C783        F790   1.357       .  S
C784        C785   1.415       .  A
C785        C786   1.395       .  A
C785        F792   1.354       .  S
C786        C787   1.406       .  A
C786        F791   1.357       .  S
C787        C788   1.415       .  A
C788        F789   1.354       .  S
O793       Cu801   2.222       .  S
O793        C803   1.296       .  A
O794       Cu801   2.205       .  S
O794        C804   1.293       .  A
O795       Cu801   2.227       .  S
O795        C805   1.297       .  A
O796       Cu801   2.203       .  S
O796        C806   1.294       .  A
O797       Cu802   1.883       .  S
O797        C806   1.241       .  A
O798       Cu802   1.875       .  S
O798        C805   1.242       .  A
O799       Cu802   1.881       .  S
O799        C804   1.245       .  A
O800       Cu802   1.887       .  S
O800        C803   1.241       .  A
Cu801      Cu802   2.101       .  S
C803        C879   1.608       .  S
C804        C881   1.600       .  S
C805        C885   1.605       .  S
C806        C877   1.598       .  S
O807       Cu815   1.888       .  S
O807        C817   1.243       .  A
O808       Cu815   1.875       .  S
O808        C818   1.241       .  A
O809       Cu815   1.871       .  S
O809        C819   1.243       .  A
O810       Cu815   1.882       .  S
O810        C820   1.242       .  A
O811       Cu816   2.235       .  S
O811        C820   1.296       .  A
O812       Cu816   2.213       .  S
O812        C819   1.294       .  A
O813       Cu816   2.229       .  S
O813        C818   1.298       .  A
O814       Cu816   2.227       .  S
O814        C817   1.294       .  A
Cu815      Cu816   2.108       .  S
C817        C883   1.602       .  S
C818        C879   1.607       .  S
C819        C877   1.592       .  S
C820        C889   1.602       .  S
O821       Cu829   1.894       .  S
O821        C831   1.241       .  A
O822       Cu829   1.884       .  S
O822        C832   1.244       .  A
O823       Cu829   1.881       .  S
O823        C833   1.241       .  A
O824       Cu829   1.882       .  S
O824        C834   1.240       .  A
O825       Cu830   2.213       .  S
O825        C834   1.295       .  A
O826       Cu830   2.192       .  S
O826        C833   1.293       .  A
O827       Cu830   2.217       .  S
O827        C832   1.295       .  A
O828       Cu830   2.215       .  S
O828        C831   1.295       .  A
Cu829      Cu830   2.085       .  S
C831        C887   1.605       .  S
C832        C877   1.602       .  S
C833        C881   1.591       .  S
C834        C883   1.599       .  S
O835       Cu843   2.208       .  S
O835        C845   1.295       .  A
O836       Cu843   2.211       .  S
O836        C846   1.295       .  A
O837       Cu843   2.234       .  S
O837        C847   1.296       .  A
O838       Cu843   2.211       .  S
O838        C848   1.293       .  A
O839       Cu844   1.881       .  S
O839        C848   1.243       .  A
O840       Cu844   1.877       .  S
O840        C847   1.241       .  A
O841       Cu844   1.872       .  S
O841        C846   1.241       .  A
O842       Cu844   1.884       .  S
O842        C845   1.239       .  A
Cu843      Cu844   2.101       .  S
C845        C885   1.600       .  S
C846        C887   1.596       .  S
C847        C891   1.598       .  S
C848        C881   1.592       .  S
O849       Cu857   2.208       .  S
O849        C859   1.296       .  A
O850       Cu857   2.232       .  S
O850        C860   1.294       .  A
O851       Cu857   2.233       .  S
O851        C861   1.295       .  A
O852       Cu857   2.237       .  S
O852        C862   1.297       .  A
O853       Cu858   1.889       .  S
O853        C862   1.244       .  A
O854       Cu858   1.888       .  S
O854        C861   1.245       .  A
O855       Cu858   1.892       .  S
O855        C860   1.245       .  A
O856       Cu858   1.870       .  S
O856        C859   1.241       .  A
Cu857      Cu858   2.102       .  S
C859        C891   1.599       .  S
C860        C879   1.606       .  S
C861        C885   1.606       .  S
C862        C889   1.614       .  S
O863       Cu871   1.873       .  S
O863        C873   1.240       .  A
O864       Cu871   1.883       .  S
O864        C874   1.245       .  A
O865       Cu871   1.892       .  S
O865        C875   1.244       .  A
O866       Cu871   1.872       .  S
O866        C876   1.243       .  A
O867       Cu872   2.226       .  S
O867        C876   1.297       .  A
O868       Cu872   2.229       .  S
O868        C875   1.296       .  A
O869       Cu872   2.215       .  S
O869        C874   1.292       .  A
O870       Cu872   2.216       .  S
O870        C873   1.297       .  A
Cu871      Cu872   2.108       .  S
C873        C889   1.603       .  S
C874        C887   1.599       .  S
C875        C891   1.613       .  S
C876        C883   1.607       .  S
C877       C1051   1.526       .  S
C878        C947   1.592       .  S
C878        C959   1.598       .  S
C878        C975   1.602       .  S
C878       C1048   1.526       .  S
C879       C1038   1.541       .  S
C880        C920   1.606       .  S
C880        C945   1.607       .  S
C880        C961   1.608       .  S
C880       C1041   1.541       .  S
C881       C1031   1.524       .  S
C882        C905   1.592       .  S
C882        C962   1.600       .  S
C882        C973   1.591       .  S
C882       C1028   1.524       .  S
C883       C1018   1.532       .  S
C884        C931   1.607       .  S
C884        C946   1.602       .  S
C884        C974   1.599       .  S
C884       C1021   1.532       .  S
C885       C1011   1.535       .  S
C886        C903   1.600       .  S
C886        C918   1.606       .  S
C886        C960   1.605       .  S
C886       C1008   1.535       .  S
C887       C1001   1.530       .  S
C888        C904   1.596       .  S
C888        C934   1.599       .  S
C888        C976   1.605       .  S
C888        C998   1.530       .  S
C889        C988   1.541       .  S
C890        C917   1.614       .  S
C890        C933   1.603       .  S
C890        C948   1.602       .  S
C890        C991   1.541       .  S
C891        C978   1.535       .  S
C892        C906   1.598       .  S
C892        C919   1.599       .  S
C892        C932   1.613       .  S
C892        C981   1.535       .  S
O893        C903   1.295       .  A
O894        C904   1.295       .  A
O895       Cu901   2.211       .  S
O895        C905   1.293       .  A
O896        C906   1.296       .  A
O897        C906   1.241       .  A
O898       Cu902   1.881       .  S
O898        C905   1.243       .  A
O899        C904   1.241       .  A
O900        C903   1.239       .  A
Cu901      Cu902   2.101       .  S
O907      Cu1707   1.889       .  S
O907        C917   1.244       .  A
O908       Cu915   1.888       .  S
O908        C918   1.245       .  A
O909        C919   1.241       .  A
O910      Cu1971   1.892       .  S
O910        C920   1.245       .  A
O911       Cu916   2.232       .  S
O911        C920   1.294       .  A
O912      Cu1708   2.208       .  S
O912        C919   1.296       .  A
O913      Cu1972   2.233       .  S
O913        C918   1.295       .  A
O914        C917   1.297       .  A
Cu915      O1699   1.889   1_456  S
Cu915      O1966   1.892   1_455  S
Cu915     Cu1972   2.102       .  S
Cu916      O1704   2.208   1_556  S
Cu916      O1969   2.233       .  S
Cu916     Cu1971   2.102       .  S
O921       Cu929   2.226       .  S
O921        C931   1.297       .  A
O922      Cu1457   2.229   1_455  S
O922        C932   1.296       .  A
O923        C933   1.297       .  A
O924      Cu1985   2.215   1_455  S
O924        C934   1.292       .  A
O925      Cu1986   1.883   1_455  S
O925        C934   1.245       .  A
O926        C933   1.240       .  A
O927      Cu1458   1.892   1_455  S
O927        C932   1.244       .  A
O928       Cu930   1.872       .  S
O928        C931   1.243       .  A
Cu929      O1450   2.229   1_565  S
Cu929      O1980   2.215       .  S
Cu929      Cu930   2.108       .  S
Cu930      O1981   1.883       .  S
Cu930      O1455   1.892   1_565  S
O935        C945   1.241       .  A
O936        C946   1.243       .  A
O937       Cu943   1.871   1_565  S
O937        C947   1.243       .  A
O938        C948   1.242       .  A
O939        C948   1.296       .  A
O940       Cu944   2.213       .  S
O940        C947   1.294       .  A
O941        C946   1.294       .  A
O942        C945   1.298       .  A
Cu943      Cu944   2.108   1_545  S
O949       Cu957   1.883   1_565  S
O949        C959   1.241       .  A
O950      Cu1485   1.875       .  S
O950        C960   1.242       .  A
O951        C961   1.241       .  A
O952      Cu2013   1.881   1_565  S
O952        C962   1.245       .  A
O953      Cu2014   2.205       .  S
O953        C962   1.293       .  A
O954        C961   1.296       .  A
O955      Cu1486   2.227       .  S
O955        C960   1.297       .  A
O956       Cu958   2.203       .  S
O956        C959   1.294       .  A
Cu957      O1478   1.875       .  S
Cu957      O2008   1.881   1_545  S
Cu957      Cu958   2.101   1_545  S
Cu958      O2009   2.205       .  S
Cu958      O1483   2.227   1_565  S
O963      Cu2027   2.192   1_455  S
O963        C973   1.293       .  A
O964        C974   1.295       .  A
O965       Cu971   2.217       .  S
O965        C975   1.295       .  A
O966      Cu1763   2.215   1_455  S
O966        C976   1.295       .  A
O967      Cu1764   1.894   1_455  S
O967        C976   1.241       .  A
O968       Cu972   1.884       .  S
O968        C975   1.244       .  A
O969        C974   1.240       .  A
O970      Cu2028   1.881   1_455  S
O970        C973   1.241       .  A
Cu971      O2019   2.192       .  S
Cu971      O1758   2.215   1_556  S
Cu971      Cu972   2.085       .  S
Cu972      O1759   1.894   1_556  S
Cu972      O2026   1.881       .  S
C977        C978   1.419       .  A
C977        C982   1.399       .  A
C977        F984   1.354       .  S
C978        C979   1.405       .  A
C979        C980   1.399       .  A
C979        F986   1.357       .  S
C980        C981   1.419       .  A
C980        F985   1.354       .  S
C981        C982   1.405       .  A
C982        F983   1.357       .  S
C987        C988   1.420       .  A
C987        C992   1.401       .  A
C987        F994   1.353       .  S
C988        C989   1.406       .  A
C989        C990   1.401       .  A
C989        F996   1.357       .  S
C990        C991   1.420       .  A
C990        F995   1.353       .  S
C991        C992   1.406       .  A
C992        F993   1.357       .  S
C997        C998   1.408       .  A
C997       C1002   1.397       .  A
C997       F1004   1.358       .  S
C998        C999   1.414       .  A
C999       C1000   1.397       .  A
C999       F1006   1.353       .  S
C1000      C1001   1.408       .  A
C1000      F1005   1.358       .  S
C1001      C1002   1.414       .  A
C1002      F1003   1.353       .  S
C1007      C1008   1.419       .  A
C1007      C1012   1.399       .  A
C1007      F1014   1.353       .  S
C1008      C1009   1.405       .  A
C1009      C1010   1.399       .  A
C1009      F1016   1.357       .  S
C1010      C1011   1.419       .  A
C1010      F1015   1.353       .  S
C1011      C1012   1.405       .  A
C1012      F1013   1.357       .  S
C1017      C1018   1.416       .  A
C1017      C1022   1.398       .  A
C1017      F1024   1.353       .  S
C1018      C1019   1.407       .  A
C1019      C1020   1.398       .  A
C1019      F1026   1.358       .  S
C1020      C1021   1.416       .  A
C1020      F1025   1.353       .  S
C1021      C1022   1.407       .  A
C1022      F1023   1.358       .  S
C1027      C1028   1.415       .  A
C1027      C1032   1.394       .  A
C1027      F1034   1.354       .  S
C1028      C1029   1.405       .  A
C1029      C1030   1.394       .  A
C1029      F1036   1.357       .  S
C1030      C1031   1.415       .  A
C1030      F1035   1.354       .  S
C1031      C1032   1.405       .  A
C1032      F1033   1.357       .  S
C1037      C1038   1.417       .  A
C1037      C1042   1.402       .  A
C1037      F1044   1.353       .  S
C1038      C1039   1.408       .  A
C1039      C1040   1.402       .  A
C1039      F1046   1.358       .  S
C1040      C1041   1.417       .  A
C1040      F1045   1.353       .  S
C1041      C1042   1.408       .  A
C1042      F1043   1.358       .  S
C1047      C1048   1.406       .  A
C1047      C1052   1.395       .  A
C1047      F1054   1.357       .  S
C1048      C1049   1.415       .  A
C1049      C1050   1.395       .  A
C1049      F1056   1.354       .  S
C1050      C1051   1.406       .  A
C1050      F1055   1.357       .  S
C1051      C1052   1.415       .  A
C1052      F1053   1.354       .  S
O1057     Cu1065   2.222       .  S
O1057      C1067   1.296       .  A
O1058     Cu1065   2.205       .  S
O1058      C1068   1.293       .  A
O1059     Cu1065   2.227       .  S
O1059      C1069   1.297       .  A
O1060     Cu1065   2.203       .  S
O1060      C1070   1.294       .  A
O1061     Cu1066   1.883       .  S
O1061      C1070   1.241       .  A
O1062     Cu1066   1.875       .  S
O1062      C1069   1.242       .  A
O1063     Cu1066   1.881       .  S
O1063      C1068   1.245       .  A
O1064     Cu1066   1.887       .  S
O1064      C1067   1.241       .  A
Cu1065    Cu1066   2.101       .  S
C1067      C1143   1.608       .  S
C1068      C1145   1.600       .  S
C1069      C1149   1.605       .  S
C1070      C1141   1.598       .  S
O1071     Cu1079   1.888       .  S
O1071      C1081   1.243       .  A
O1072     Cu1079   1.874       .  S
O1072      C1082   1.241       .  A
O1073     Cu1079   1.871       .  S
O1073      C1083   1.243       .  A
O1074     Cu1079   1.882       .  S
O1074      C1084   1.242       .  A
O1075     Cu1080   2.235       .  S
O1075      C1084   1.296       .  A
O1076     Cu1080   2.213       .  S
O1076      C1083   1.294       .  A
O1077     Cu1080   2.229       .  S
O1077      C1082   1.298       .  A
O1078     Cu1080   2.227       .  S
O1078      C1081   1.294       .  A
Cu1079    Cu1080   2.108       .  S
C1081      C1147   1.602       .  S
C1082      C1143   1.607       .  S
C1083      C1141   1.592       .  S
C1084      C1153   1.602       .  S
O1085     Cu1093   1.894       .  S
O1085      C1095   1.241       .  A
O1086     Cu1093   1.884       .  S
O1086      C1096   1.244       .  A
O1087     Cu1093   1.881       .  S
O1087      C1097   1.241       .  A
O1088     Cu1093   1.882       .  S
O1088      C1098   1.240       .  A
O1089     Cu1094   2.213       .  S
O1089      C1098   1.295       .  A
O1090     Cu1094   2.192       .  S
O1090      C1097   1.293       .  A
O1091     Cu1094   2.217       .  S
O1091      C1096   1.295       .  A
O1092     Cu1094   2.215       .  S
O1092      C1095   1.295       .  A
Cu1093    Cu1094   2.085       .  S
C1095      C1151   1.605       .  S
C1096      C1141   1.602       .  S
C1097      C1145   1.591       .  S
C1098      C1147   1.599       .  S
O1099     Cu1107   2.208       .  S
O1099      C1109   1.295       .  A
O1100     Cu1107   2.211       .  S
O1100      C1110   1.295       .  A
O1101     Cu1107   2.234       .  S
O1101      C1111   1.296       .  A
O1102     Cu1107   2.211       .  S
O1102      C1112   1.293       .  A
O1103     Cu1108   1.880       .  S
O1103      C1112   1.243       .  A
O1104     Cu1108   1.877       .  S
O1104      C1111   1.241       .  A
O1105     Cu1108   1.872       .  S
O1105      C1110   1.241       .  A
O1106     Cu1108   1.884       .  S
O1106      C1109   1.239       .  A
Cu1107    Cu1108   2.101       .  S
C1109      C1149   1.600       .  S
C1110      C1151   1.596       .  S
C1111      C1155   1.598       .  S
C1112      C1145   1.592       .  S
O1113     Cu1121   2.208       .  S
O1113      C1123   1.296       .  A
O1114     Cu1121   2.232       .  S
O1114      C1124   1.294       .  A
O1115     Cu1121   2.233       .  S
O1115      C1125   1.295       .  A
O1116     Cu1121   2.237       .  S
O1116      C1126   1.297       .  A
O1117     Cu1122   1.889       .  S
O1117      C1126   1.244       .  A
O1118     Cu1122   1.888       .  S
O1118      C1125   1.245       .  A
O1119     Cu1122   1.892       .  S
O1119      C1124   1.244       .  A
O1120     Cu1122   1.870       .  S
O1120      C1123   1.241       .  A
Cu1121    Cu1122   2.102       .  S
C1123      C1155   1.599       .  S
C1124      C1143   1.606       .  S
C1125      C1149   1.606       .  S
C1126      C1153   1.614       .  S
O1127     Cu1135   1.873       .  S
O1127      C1137   1.240       .  A
O1128     Cu1135   1.883       .  S
O1128      C1138   1.245       .  A
O1129     Cu1135   1.892       .  S
O1129      C1139   1.244       .  A
O1130     Cu1135   1.872       .  S
O1130      C1140   1.243       .  A
O1131     Cu1136   2.226       .  S
O1131      C1140   1.297       .  A
O1132     Cu1136   2.229       .  S
O1132      C1139   1.296       .  A
O1133     Cu1136   2.215       .  S
O1133      C1138   1.292       .  A
O1134     Cu1136   2.216       .  S
O1134      C1137   1.297       .  A
Cu1135    Cu1136   2.108       .  S
C1137      C1153   1.603       .  S
C1138      C1151   1.599       .  S
C1139      C1155   1.613       .  S
C1140      C1147   1.607       .  S
C1141      C1315   1.526       .  S
C1142      C1211   1.592       .  S
C1142      C1223   1.598       .  S
C1142      C1239   1.602       .  S
C1142      C1312   1.526       .  S
C1143      C1302   1.541       .  S
C1144      C1184   1.606       .  S
C1144      C1209   1.607       .  S
C1144      C1225   1.608       .  S
C1144      C1305   1.541       .  S
C1145      C1295   1.524       .  S
C1146      C1169   1.592       .  S
C1146      C1226   1.600       .  S
C1146      C1237   1.591       .  S
C1146      C1292   1.524       .  S
C1147      C1282   1.532       .  S
C1148      C1195   1.607       .  S
C1148      C1210   1.602       .  S
C1148      C1238   1.599       .  S
C1148      C1285   1.532       .  S
C1149      C1275   1.535       .  S
C1150      C1167   1.600       .  S
C1150      C1182   1.606       .  S
C1150      C1224   1.605       .  S
C1150      C1272   1.535       .  S
C1151      C1265   1.530       .  S
C1152      C1168   1.596       .  S
C1152      C1198   1.599       .  S
C1152      C1240   1.605       .  S
C1152      C1262   1.530       .  S
C1153      C1252   1.541       .  S
C1154      C1181   1.614       .  S
C1154      C1197   1.603       .  S
C1154      C1212   1.602       .  S
C1154      C1255   1.541       .  S
C1155      C1242   1.535       .  S
C1156      C1170   1.598       .  S
C1156      C1183   1.599       .  S
C1156      C1196   1.613       .  S
C1156      C1245   1.535       .  S
O1157     Cu1693   2.208   1_545  S
O1157      C1167   1.295       .  A
O1158     Cu1429   2.211   1_554  S
O1158      C1168   1.295       .  A
O1159     Cu1165   2.211       .  S
O1159      C1169   1.293       .  A
O1160     Cu1957   2.234   1_544  S
O1160      C1170   1.296       .  A
O1161     Cu1958   1.877   1_544  S
O1161      C1170   1.241       .  A
O1162     Cu1166   1.880       .  S
O1162      C1169   1.243       .  A
O1163     Cu1430   1.872   1_554  S
O1163      C1168   1.241       .  A
O1164     Cu1694   1.884   1_545  S
O1164      C1167   1.239       .  A
Cu1165     O1685   2.208       .  S
Cu1165     O1422   2.211       .  S
Cu1165     O1952   2.234       .  S
Cu1165    Cu1166   2.100       .  S
Cu1166     O1953   1.877       .  S
Cu1166     O1427   1.872       .  S
Cu1166     O1692   1.884       .  S
O1171      C1181   1.244       .  A
O1172     Cu1179   1.888       .  S
O1172      C1182   1.245       .  A
O1173     Cu1443   1.870   1_554  S
O1173      C1183   1.241       .  A
O1174      C1184   1.245       .  A
O1175     Cu1180   2.232   1_655  S
O1175      C1184   1.294       .  A
O1176      C1183   1.296       .  A
O1177      C1182   1.295       .  A
O1178     Cu1444   2.237   1_654  S
O1178      C1181   1.297       .  A
Cu1179     O1437   1.870       .  S
Cu1180     O1442   2.237   1_455  S
O1185     Cu1193   2.226       .  S
O1185      C1195   1.297       .  A
O1186      C1196   1.296       .  A
O1187     Cu1721   2.216   1_545  S
O1187      C1197   1.297       .  A
O1188      C1198   1.292       .  A
O1189      C1198   1.245       .  A
O1190     Cu1722   1.873   1_545  S
O1190      C1197   1.240       .  A
O1191      C1196   1.244       .  A
O1192     Cu1194   1.872       .  S
O1192      C1195   1.243       .  A
Cu1193     O1715   2.216       .  S
Cu1193    Cu1194   2.108       .  S
Cu1194     O1718   1.873       .  S
O1199     Cu1735   1.874       .  S
O1199      C1209   1.241       .  A
O1200     Cu1471   1.888   1_554  S
O1200      C1210   1.243       .  A
O1201     Cu1207   1.871       .  S
O1201      C1211   1.243       .  A
O1202     Cu1999   1.882   1_554  S
O1202      C1212   1.242       .  A
O1203     Cu2000   2.235   1_544  S
O1203      C1212   1.296       .  A
O1204     Cu1208   2.213       .  S
O1204      C1211   1.294       .  A
O1205     Cu1472   2.227   1_554  S
O1205      C1210   1.294       .  A
O1206     Cu1736   2.229   1_545  S
O1206      C1209   1.298       .  A
Cu1207     O1727   1.875       .  S
Cu1207     O1464   1.888       .  S
Cu1207     O1994   1.882       .  S
Cu1207    Cu1208   2.108       .  S
Cu1208     O1995   2.235       .  S
Cu1208     O1469   2.227       .  S
Cu1208     O1734   2.229       .  S
O1213     Cu1221   1.883   1_655  S
O1213      C1223   1.241       .  A
O1214      C1224   1.242       .  A
O1215     Cu1749   1.887   1_655  S
O1215      C1225   1.241       .  A
O1216      C1226   1.245       .  A
O1217      C1226   1.293       .  A
O1218     Cu1750   2.222   1_645  S
O1218      C1225   1.296       .  A
O1219      C1224   1.297       .  A
O1220     Cu1222   2.203   1_655  S
O1220      C1223   1.294       .  A
Cu1221     O1743   1.887   1_455  S
Cu1221    Cu1222   2.101       .  S
Cu1222     O1746   2.222   1_455  S
O1227      C1237   1.293       .  A
O1228     Cu1499   2.213   1_554  S
O1228      C1238   1.295       .  A
O1229     Cu1235   2.217       .  S
O1229      C1239   1.295       .  A
O1230      C1240   1.295       .  A
O1231      C1240   1.241       .  A
O1232     Cu1236   1.884       .  S
O1232      C1239   1.244       .  A
O1233     Cu1500   1.882   1_554  S
O1233      C1238   1.240       .  A
O1234      C1237   1.241       .  A
Cu1235     O1492   2.213       .  S
Cu1235    Cu1236   2.085       .  S
Cu1236     O1497   1.882       .  S
C1241      C1242   1.419       .  A
C1241      C1246   1.399       .  A
C1241      F1248   1.354       .  S
C1242      C1243   1.405       .  A
C1243      C1244   1.399       .  A
C1243      F1250   1.357       .  S
C1244      C1245   1.419       .  A
C1244      F1249   1.354       .  S
C1245      C1246   1.405       .  A
C1246      F1247   1.357       .  S
C1251      C1252   1.420       .  A
C1251      C1256   1.401       .  A
C1251      F1258   1.353       .  S
C1252      C1253   1.406       .  A
C1253      C1254   1.401       .  A
C1253      F1260   1.357       .  S
C1254      C1255   1.420       .  A
C1254      F1259   1.353       .  S
C1255      C1256   1.406       .  A
C1256      F1257   1.357       .  S
C1261      C1262   1.408       .  A
C1261      C1266   1.397       .  A
C1261      F1268   1.358       .  S
C1262      C1263   1.414       .  A
C1263      C1264   1.397       .  A
C1263      F1270   1.353       .  S
C1264      C1265   1.408       .  A
C1264      F1269   1.358       .  S
C1265      C1266   1.414       .  A
C1266      F1267   1.353       .  S
C1271      C1272   1.419       .  A
C1271      C1276   1.399       .  A
C1271      F1278   1.353       .  S
C1272      C1273   1.405       .  A
C1273      C1274   1.399       .  A
C1273      F1280   1.357       .  S
C1274      C1275   1.419       .  A
C1274      F1279   1.353       .  S
C1275      C1276   1.405       .  A
C1276      F1277   1.357       .  S
C1281      C1282   1.416       .  A
C1281      C1286   1.398       .  A
C1281      F1288   1.353       .  S
C1282      C1283   1.407       .  A
C1283      C1284   1.398       .  A
C1283      F1290   1.358       .  S
C1284      C1285   1.416       .  A
C1284      F1289   1.353       .  S
C1285      C1286   1.407       .  A
C1286      F1287   1.358       .  S
C1291      C1292   1.415       .  A
C1291      C1296   1.394       .  A
C1291      F1298   1.354       .  S
C1292      C1293   1.405       .  A
C1293      C1294   1.394       .  A
C1293      F1300   1.357       .  S
C1294      C1295   1.415       .  A
C1294      F1299   1.354       .  S
C1295      C1296   1.405       .  A
C1296      F1297   1.357       .  S
C1301      C1302   1.417       .  A
C1301      C1306   1.402       .  A
C1301      F1308   1.353       .  S
C1302      C1303   1.408       .  A
C1303      C1304   1.402       .  A
C1303      F1310   1.358       .  S
C1304      C1305   1.417       .  A
C1304      F1309   1.353       .  S
C1305      C1306   1.408       .  A
C1306      F1307   1.358       .  S
C1311      C1312   1.406       .  A
C1311      C1316   1.395       .  A
C1311      F1318   1.357       .  S
C1312      C1313   1.415       .  A
C1313      C1314   1.395       .  A
C1313      F1320   1.354       .  S
C1314      C1315   1.406       .  A
C1314      F1319   1.357       .  S
C1315      C1316   1.415       .  A
C1316      F1317   1.354       .  S
O1321     Cu1329   2.222       .  S
O1321      C1331   1.296       .  A
O1322     Cu1329   2.205       .  S
O1322      C1332   1.293       .  A
O1323     Cu1329   2.227       .  S
O1323      C1333   1.297       .  A
O1324     Cu1329   2.203       .  S
O1324      C1334   1.294       .  A
O1325     Cu1330   1.883       .  S
O1325      C1334   1.241       .  A
O1326     Cu1330   1.875       .  S
O1326      C1333   1.242       .  A
O1327     Cu1330   1.881       .  S
O1327      C1332   1.245       .  A
O1328     Cu1330   1.887       .  S
O1328      C1331   1.241       .  A
Cu1329    Cu1330   2.101       .  S
C1331      C1407   1.608       .  S
C1332      C1409   1.600       .  S
C1333      C1413   1.605       .  S
C1334      C1405   1.598       .  S
O1335     Cu1343   1.888       .  S
O1335      C1345   1.243       .  A
O1336     Cu1343   1.874       .  S
O1336      C1346   1.241       .  A
O1337     Cu1343   1.871       .  S
O1337      C1347   1.243       .  A
O1338     Cu1343   1.882       .  S
O1338      C1348   1.242       .  A
O1339     Cu1344   2.235       .  S
O1339      C1348   1.296       .  A
O1340     Cu1344   2.213       .  S
O1340      C1347   1.294       .  A
O1341     Cu1344   2.229       .  S
O1341      C1346   1.298       .  A
O1342     Cu1344   2.227       .  S
O1342      C1345   1.294       .  A
Cu1343    Cu1344   2.108       .  S
C1345      C1411   1.602       .  S
C1346      C1407   1.607       .  S
C1347      C1405   1.592       .  S
C1348      C1417   1.602       .  S
O1349     Cu1357   1.894       .  S
O1349      C1359   1.241       .  A
O1350     Cu1357   1.884       .  S
O1350      C1360   1.244       .  A
O1351     Cu1357   1.881       .  S
O1351      C1361   1.241       .  A
O1352     Cu1357   1.882       .  S
O1352      C1362   1.240       .  A
O1353     Cu1358   2.213       .  S
O1353      C1362   1.295       .  A
O1354     Cu1358   2.192       .  S
O1354      C1361   1.293       .  A
O1355     Cu1358   2.217       .  S
O1355      C1360   1.295       .  A
O1356     Cu1358   2.215       .  S
O1356      C1359   1.295       .  A
Cu1357    Cu1358   2.085       .  S
C1359      C1415   1.605       .  S
C1360      C1405   1.602       .  S
C1361      C1409   1.591       .  S
C1362      C1411   1.599       .  S
O1363     Cu1371   2.208       .  S
O1363      C1373   1.295       .  A
O1364     Cu1371   2.211       .  S
O1364      C1374   1.295       .  A
O1365     Cu1371   2.234       .  S
O1365      C1375   1.296       .  A
O1366     Cu1371   2.211       .  S
O1366      C1376   1.293       .  A
O1367     Cu1372   1.880       .  S
O1367      C1376   1.243       .  A
O1368     Cu1372   1.877       .  S
O1368      C1375   1.241       .  A
O1369     Cu1372   1.872       .  S
O1369      C1374   1.241       .  A
O1370     Cu1372   1.884       .  S
O1370      C1373   1.239       .  A
Cu1371    Cu1372   2.101       .  S
C1373      C1413   1.600       .  S
C1374      C1415   1.596       .  S
C1375      C1419   1.598       .  S
C1376      C1409   1.592       .  S
O1377     Cu1385   2.208       .  S
O1377      C1387   1.296       .  A
O1378     Cu1385   2.232       .  S
O1378      C1388   1.294       .  A
O1379     Cu1385   2.233       .  S
O1379      C1389   1.295       .  A
O1380     Cu1385   2.237       .  S
O1380      C1390   1.297       .  A
O1381     Cu1386   1.889       .  S
O1381      C1390   1.244       .  A
O1382     Cu1386   1.888       .  S
O1382      C1389   1.245       .  A
O1383     Cu1386   1.892       .  S
O1383      C1388   1.244       .  A
O1384     Cu1386   1.870       .  S
O1384      C1387   1.241       .  A
Cu1385    Cu1386   2.102       .  S
C1387      C1419   1.599       .  S
C1388      C1407   1.606       .  S
C1389      C1413   1.606       .  S
C1390      C1417   1.614       .  S
O1391     Cu1399   1.873       .  S
O1391      C1401   1.240       .  A
O1392     Cu1399   1.883       .  S
O1392      C1402   1.245       .  A
O1393     Cu1399   1.892       .  S
O1393      C1403   1.244       .  A
O1394     Cu1399   1.872       .  S
O1394      C1404   1.243       .  A
O1395     Cu1400   2.226       .  S
O1395      C1404   1.297       .  A
O1396     Cu1400   2.229       .  S
O1396      C1403   1.296       .  A
O1397     Cu1400   2.215       .  S
O1397      C1402   1.292       .  A
O1398     Cu1400   2.216       .  S
O1398      C1401   1.297       .  A
Cu1399    Cu1400   2.108       .  S
C1401      C1417   1.603       .  S
C1402      C1415   1.599       .  S
C1403      C1419   1.613       .  S
C1404      C1411   1.607       .  S
C1405      C1579   1.526       .  S
C1406      C1475   1.592       .  S
C1406      C1487   1.598       .  S
C1406      C1503   1.602       .  S
C1406      C1576   1.526       .  S
C1407      C1566   1.541       .  S
C1408      C1448   1.606       .  S
C1408      C1473   1.607       .  S
C1408      C1489   1.608       .  S
C1408      C1569   1.541       .  S
C1409      C1559   1.524       .  S
C1410      C1433   1.592       .  S
C1410      C1490   1.600       .  S
C1410      C1501   1.591       .  S
C1410      C1556   1.524       .  S
C1411      C1546   1.532       .  S
C1412      C1459   1.607       .  S
C1412      C1474   1.602       .  S
C1412      C1502   1.599       .  S
C1412      C1549   1.532       .  S
C1413      C1539   1.535       .  S
C1414      C1431   1.600       .  S
C1414      C1446   1.606       .  S
C1414      C1488   1.605       .  S
C1414      C1536   1.535       .  S
C1415      C1529   1.530       .  S
C1416      C1432   1.596       .  S
C1416      C1462   1.599       .  S
C1416      C1504   1.605       .  S
C1416      C1526   1.530       .  S
C1417      C1516   1.541       .  S
C1418      C1445   1.614       .  S
C1418      C1461   1.603       .  S
C1418      C1476   1.602       .  S
C1418      C1519   1.541       .  S
C1419      C1506   1.535       .  S
C1420      C1434   1.598       .  S
C1420      C1447   1.599       .  S
C1420      C1460   1.613       .  S
C1420      C1509   1.535       .  S
O1421     Cu1957   2.208   1_545  S
O1421      C1431   1.295       .  A
O1422      C1432   1.295       .  A
O1423     Cu1429   2.211       .  S
O1423      C1433   1.293       .  A
O1424     Cu1693   2.234   1_545  S
O1424      C1434   1.296       .  A
O1425     Cu1694   1.877   1_545  S
O1425      C1434   1.241       .  A
O1426     Cu1430   1.880       .  S
O1426      C1433   1.243       .  A
O1427      C1432   1.241       .  A
O1428     Cu1958   1.884   1_545  S
O1428      C1431   1.239       .  A
Cu1429     O1949   2.208       .  S
Cu1429     O1688   2.234   1_556  S
Cu1429    Cu1430   2.100       .  S
Cu1430     O1689   1.877   1_556  S
Cu1430     O1956   1.884       .  S
O1435      C1445   1.244       .  A
O1436     Cu1443   1.888       .  S
O1436      C1446   1.245       .  A
O1437      C1447   1.241       .  A
O1438      C1448   1.245       .  A
O1439     Cu1444   2.232   1_655  S
O1439      C1448   1.294       .  A
O1440      C1447   1.296       .  A
O1441      C1446   1.295       .  A
O1442      C1445   1.297       .  A
O1449     Cu1457   2.226       .  S
O1449      C1459   1.297       .  A
O1450      C1460   1.296       .  A
O1451     Cu1985   2.216   1_545  S
O1451      C1461   1.297       .  A
O1452      C1462   1.292       .  A
O1453      C1462   1.245       .  A
O1454     Cu1986   1.873   1_545  S
O1454      C1461   1.240       .  A
O1455      C1460   1.244       .  A
O1456     Cu1458   1.872       .  S
O1456      C1459   1.243       .  A
Cu1457     O1979   2.216       .  S
Cu1457    Cu1458   2.108       .  S
Cu1458     O1982   1.873       .  S
O1463     Cu1999   1.874       .  S
O1463      C1473   1.241       .  A
O1464      C1474   1.243       .  A
O1465     Cu1471   1.871       .  S
O1465      C1475   1.243       .  A
O1466     Cu1735   1.882       .  S
O1466      C1476   1.242       .  A
O1467     Cu1736   2.235   1_545  S
O1467      C1476   1.296       .  A
O1468     Cu1472   2.213       .  S
O1468      C1475   1.294       .  A
O1469      C1474   1.294       .  A
O1470     Cu2000   2.229   1_545  S
O1470      C1473   1.298       .  A
Cu1471     O1991   1.875       .  S
Cu1471     O1730   1.882   1_556  S
Cu1471    Cu1472   2.108       .  S
Cu1472     O1731   2.235   1_556  S
Cu1472     O1998   2.229       .  S
O1477     Cu1485   1.883   1_655  S
O1477      C1487   1.241       .  A
O1478      C1488   1.242       .  A
O1479     Cu2013   1.887   1_655  S
O1479      C1489   1.241       .  A
O1480      C1490   1.245       .  A
O1481      C1490   1.293       .  A
O1482     Cu2014   2.222   1_645  S
O1482      C1489   1.296       .  A
O1483      C1488   1.297       .  A
O1484     Cu1486   2.203   1_655  S
O1484      C1487   1.294       .  A
Cu1485     O2007   1.887   1_455  S
Cu1485    Cu1486   2.101       .  S
Cu1486     O2010   2.222   1_455  S
O1491      C1501   1.293       .  A
O1492      C1502   1.295       .  A
O1493     Cu1499   2.217       .  S
O1493      C1503   1.295       .  A
O1494      C1504   1.295       .  A
O1495      C1504   1.241       .  A
O1496     Cu1500   1.884       .  S
O1496      C1503   1.244       .  A
O1497      C1502   1.240       .  A
O1498      C1501   1.241       .  A
Cu1499    Cu1500   2.085       .  S
C1505      C1506   1.419       .  A
C1505      C1510   1.399       .  A
C1505      F1512   1.354       .  S
C1506      C1507   1.405       .  A
C1507      C1508   1.399       .  A
C1507      F1514   1.357       .  S
C1508      C1509   1.419       .  A
C1508      F1513   1.354       .  S
C1509      C1510   1.405       .  A
C1510      F1511   1.357       .  S
C1515      C1516   1.420       .  A
C1515      C1520   1.401       .  A
C1515      F1522   1.353       .  S
C1516      C1517   1.406       .  A
C1517      C1518   1.401       .  A
C1517      F1524   1.357       .  S
C1518      C1519   1.420       .  A
C1518      F1523   1.353       .  S
C1519      C1520   1.406       .  A
C1520      F1521   1.357       .  S
C1525      C1526   1.408       .  A
C1525      C1530   1.397       .  A
C1525      F1532   1.358       .  S
C1526      C1527   1.414       .  A
C1527      C1528   1.397       .  A
C1527      F1534   1.353       .  S
C1528      C1529   1.408       .  A
C1528      F1533   1.358       .  S
C1529      C1530   1.414       .  A
C1530      F1531   1.353       .  S
C1535      C1536   1.419       .  A
C1535      C1540   1.399       .  A
C1535      F1542   1.353       .  S
C1536      C1537   1.405       .  A
C1537      C1538   1.399       .  A
C1537      F1544   1.357       .  S
C1538      C1539   1.419       .  A
C1538      F1543   1.353       .  S
C1539      C1540   1.405       .  A
C1540      F1541   1.357       .  S
C1545      C1546   1.416       .  A
C1545      C1550   1.398       .  A
C1545      F1552   1.353       .  S
C1546      C1547   1.407       .  A
C1547      C1548   1.398       .  A
C1547      F1554   1.358       .  S
C1548      C1549   1.416       .  A
C1548      F1553   1.353       .  S
C1549      C1550   1.407       .  A
C1550      F1551   1.358       .  S
C1555      C1556   1.415       .  A
C1555      C1560   1.394       .  A
C1555      F1562   1.354       .  S
C1556      C1557   1.405       .  A
C1557      C1558   1.394       .  A
C1557      F1564   1.357       .  S
C1558      C1559   1.415       .  A
C1558      F1563   1.354       .  S
C1559      C1560   1.405       .  A
C1560      F1561   1.357       .  S
C1565      C1566   1.417       .  A
C1565      C1570   1.402       .  A
C1565      F1572   1.353       .  S
C1566      C1567   1.408       .  A
C1567      C1568   1.402       .  A
C1567      F1574   1.358       .  S
C1568      C1569   1.417       .  A
C1568      F1573   1.353       .  S
C1569      C1570   1.408       .  A
C1570      F1571   1.358       .  S
C1575      C1576   1.406       .  A
C1575      C1580   1.395       .  A
C1575      F1582   1.357       .  S
C1576      C1577   1.415       .  A
C1577      C1578   1.395       .  A
C1577      F1584   1.354       .  S
C1578      C1579   1.406       .  A
C1578      F1583   1.357       .  S
C1579      C1580   1.415       .  A
C1580      F1581   1.354       .  S
O1585     Cu1593   2.222       .  S
O1585      C1595   1.296       .  A
O1586     Cu1593   2.205       .  S
O1586      C1596   1.293       .  A
O1587     Cu1593   2.227       .  S
O1587      C1597   1.297       .  A
O1588     Cu1593   2.203       .  S
O1588      C1598   1.294       .  A
O1589     Cu1594   1.883       .  S
O1589      C1598   1.241       .  A
O1590     Cu1594   1.875       .  S
O1590      C1597   1.242       .  A
O1591     Cu1594   1.881       .  S
O1591      C1596   1.245       .  A
O1592     Cu1594   1.887       .  S
O1592      C1595   1.241       .  A
Cu1593    Cu1594   2.101       .  S
C1595      C1671   1.608       .  S
C1596      C1673   1.600       .  S
C1597      C1677   1.605       .  S
C1598      C1669   1.598       .  S
O1599     Cu1607   1.888       .  S
O1599      C1609   1.243       .  A
O1600     Cu1607   1.875       .  S
O1600      C1610   1.241       .  A
O1601     Cu1607   1.871       .  S
O1601      C1611   1.243       .  A
O1602     Cu1607   1.882       .  S
O1602      C1612   1.242       .  A
O1603     Cu1608   2.235       .  S
O1603      C1612   1.296       .  A
O1604     Cu1608   2.213       .  S
O1604      C1611   1.294       .  A
O1605     Cu1608   2.229       .  S
O1605      C1610   1.298       .  A
O1606     Cu1608   2.227       .  S
O1606      C1609   1.294       .  A
Cu1607    Cu1608   2.108       .  S
C1609      C1675   1.602       .  S
C1610      C1671   1.607       .  S
C1611      C1669   1.592       .  S
C1612      C1681   1.602       .  S
O1613     Cu1621   1.894       .  S
O1613      C1623   1.241       .  A
O1614     Cu1621   1.884       .  S
O1614      C1624   1.244       .  A
O1615     Cu1621   1.881       .  S
O1615      C1625   1.241       .  A
O1616     Cu1621   1.882       .  S
O1616      C1626   1.240       .  A
O1617     Cu1622   2.213       .  S
O1617      C1626   1.295       .  A
O1618     Cu1622   2.192       .  S
O1618      C1625   1.293       .  A
O1619     Cu1622   2.217       .  S
O1619      C1624   1.295       .  A
O1620     Cu1622   2.215       .  S
O1620      C1623   1.295       .  A
Cu1621    Cu1622   2.085       .  S
C1623      C1679   1.605       .  S
C1624      C1669   1.602       .  S
C1625      C1673   1.591       .  S
C1626      C1675   1.599       .  S
O1627     Cu1635   2.208       .  S
O1627      C1637   1.295       .  A
O1628     Cu1635   2.211       .  S
O1628      C1638   1.295       .  A
O1629     Cu1635   2.234       .  S
O1629      C1639   1.296       .  A
O1630     Cu1635   2.211       .  S
O1630      C1640   1.293       .  A
O1631     Cu1636   1.881       .  S
O1631      C1640   1.243       .  A
O1632     Cu1636   1.877       .  S
O1632      C1639   1.241       .  A
O1633     Cu1636   1.872       .  S
O1633      C1638   1.241       .  A
O1634     Cu1636   1.884       .  S
O1634      C1637   1.239       .  A
Cu1635    Cu1636   2.101       .  S
C1637      C1677   1.600       .  S
C1638      C1679   1.596       .  S
C1639      C1683   1.598       .  S
C1640      C1673   1.592       .  S
O1641     Cu1649   2.208       .  S
O1641      C1651   1.296       .  A
O1642     Cu1649   2.232       .  S
O1642      C1652   1.294       .  A
O1643     Cu1649   2.233       .  S
O1643      C1653   1.295       .  A
O1644     Cu1649   2.237       .  S
O1644      C1654   1.297       .  A
O1645     Cu1650   1.889       .  S
O1645      C1654   1.244       .  A
O1646     Cu1650   1.888       .  S
O1646      C1653   1.245       .  A
O1647     Cu1650   1.892       .  S
O1647      C1652   1.245       .  A
O1648     Cu1650   1.870       .  S
O1648      C1651   1.241       .  A
Cu1649    Cu1650   2.102       .  S
C1651      C1683   1.599       .  S
C1652      C1671   1.606       .  S
C1653      C1677   1.606       .  S
C1654      C1681   1.614       .  S
O1655     Cu1663   1.873       .  S
O1655      C1665   1.240       .  A
O1656     Cu1663   1.883       .  S
O1656      C1666   1.245       .  A
O1657     Cu1663   1.892       .  S
O1657      C1667   1.244       .  A
O1658     Cu1663   1.872       .  S
O1658      C1668   1.243       .  A
O1659     Cu1664   2.226       .  S
O1659      C1668   1.297       .  A
O1660     Cu1664   2.229       .  S
O1660      C1667   1.296       .  A
O1661     Cu1664   2.215       .  S
O1661      C1666   1.292       .  A
O1662     Cu1664   2.216       .  S
O1662      C1665   1.297       .  A
Cu1663    Cu1664   2.108       .  S
C1665      C1681   1.603       .  S
C1666      C1679   1.599       .  S
C1667      C1683   1.613       .  S
C1668      C1675   1.607       .  S
C1669      C1843   1.526       .  S
C1670      C1739   1.592       .  S
C1670      C1751   1.598       .  S
C1670      C1767   1.602       .  S
C1670      C1840   1.526       .  S
C1671      C1830   1.541       .  S
C1672      C1712   1.606       .  S
C1672      C1737   1.607       .  S
C1672      C1753   1.608       .  S
C1672      C1833   1.541       .  S
C1673      C1823   1.524       .  S
C1674      C1697   1.592       .  S
C1674      C1754   1.600       .  S
C1674      C1765   1.591       .  S
C1674      C1820   1.524       .  S
C1675      C1810   1.532       .  S
C1676      C1723   1.607       .  S
C1676      C1738   1.602       .  S
C1676      C1766   1.599       .  S
C1676      C1813   1.532       .  S
C1677      C1803   1.535       .  S
C1678      C1695   1.600       .  S
C1678      C1710   1.606       .  S
C1678      C1752   1.605       .  S
C1678      C1800   1.535       .  S
C1679      C1793   1.530       .  S
C1680      C1696   1.596       .  S
C1680      C1726   1.599       .  S
C1680      C1768   1.605       .  S
C1680      C1790   1.530       .  S
C1681      C1780   1.541       .  S
C1682      C1709   1.614       .  S
C1682      C1725   1.603       .  S
C1682      C1740   1.602       .  S
C1682      C1783   1.541       .  S
C1683      C1770   1.535       .  S
C1684      C1698   1.598       .  S
C1684      C1711   1.599       .  S
C1684      C1724   1.613       .  S
C1684      C1773   1.535       .  S
O1685      C1695   1.295       .  A
O1686     Cu1957   2.211   1_554  S
O1686      C1696   1.295       .  A
O1687     Cu1693   2.211       .  S
O1687      C1697   1.293       .  A
O1688      C1698   1.296       .  A
O1689      C1698   1.241       .  A
O1690     Cu1694   1.881       .  S
O1690      C1697   1.243       .  A
O1691     Cu1958   1.872   1_554  S
O1691      C1696   1.241       .  A
O1692      C1695   1.239       .  A
Cu1693     O1950   2.211       .  S
Cu1693    Cu1694   2.101       .  S
Cu1694     O1955   1.872       .  S
O1699      C1709   1.244       .  A
O1700     Cu1707   1.888       .  S
O1700      C1710   1.245       .  A
O1701     Cu1971   1.870   1_554  S
O1701      C1711   1.241       .  A
O1702      C1712   1.245       .  A
O1703     Cu1708   2.232   1_655  S
O1703      C1712   1.294       .  A
O1704      C1711   1.296       .  A
O1705      C1710   1.295       .  A
O1706     Cu1972   2.237   1_654  S
O1706      C1709   1.297       .  A
Cu1707     O1965   1.870       .  S
Cu1708     O1970   2.237   1_455  S
O1713     Cu1721   2.226       .  S
O1713      C1723   1.297       .  A
O1714      C1724   1.296       .  A
O1715      C1725   1.297       .  A
O1716      C1726   1.292       .  A
O1717      C1726   1.245       .  A
O1718      C1725   1.240       .  A
O1719      C1724   1.244       .  A
O1720     Cu1722   1.872       .  S
O1720      C1723   1.243       .  A
Cu1721    Cu1722   2.108       .  S
O1727      C1737   1.241       .  A
O1728     Cu1999   1.888   1_564  S
O1728      C1738   1.243       .  A
O1729     Cu1735   1.871   1_565  S
O1729      C1739   1.243       .  A
O1730      C1740   1.242       .  A
O1731      C1740   1.296       .  A
O1732     Cu1736   2.213       .  S
O1732      C1739   1.294       .  A
O1733     Cu2000   2.227   1_554  S
O1733      C1738   1.294       .  A
O1734      C1737   1.298       .  A
Cu1735     O1992   1.888   1_545  S
Cu1735    Cu1736   2.108   1_545  S
Cu1736     O1997   2.227       .  S
O1741     Cu1749   1.883   1_665  S
O1741      C1751   1.241       .  A
O1742      C1752   1.242       .  A
O1743      C1753   1.241       .  A
O1744      C1754   1.245       .  A
O1745      C1754   1.293       .  A
O1746      C1753   1.296       .  A
O1747      C1752   1.297       .  A
O1748     Cu1750   2.203   1_655  S
O1748      C1751   1.294       .  A
Cu1749    Cu1750   2.101   1_545  S
O1755      C1765   1.293       .  A
O1756     Cu2027   2.213   1_554  S
O1756      C1766   1.295       .  A
O1757     Cu1763   2.217       .  S
O1757      C1767   1.295       .  A
O1758      C1768   1.295       .  A
O1759      C1768   1.241       .  A
O1760     Cu1764   1.884       .  S
O1760      C1767   1.244       .  A
O1761     Cu2028   1.882   1_554  S
O1761      C1766   1.240       .  A
O1762      C1765   1.241       .  A
Cu1763     O2020   2.213       .  S
Cu1763    Cu1764   2.085       .  S
Cu1764     O2025   1.882       .  S
C1769      C1770   1.419       .  A
C1769      C1774   1.399       .  A
C1769      F1776   1.354       .  S
C1770      C1771   1.405       .  A
C1771      C1772   1.399       .  A
C1771      F1778   1.357       .  S
C1772      C1773   1.419       .  A
C1772      F1777   1.354       .  S
C1773      C1774   1.405       .  A
C1774      F1775   1.357       .  S
C1779      C1780   1.420       .  A
C1779      C1784   1.401       .  A
C1779      F1786   1.353       .  S
C1780      C1781   1.406       .  A
C1781      C1782   1.401       .  A
C1781      F1788   1.357       .  S
C1782      C1783   1.420       .  A
C1782      F1787   1.353       .  S
C1783      C1784   1.406       .  A
C1784      F1785   1.357       .  S
C1789      C1790   1.408       .  A
C1789      C1794   1.397       .  A
C1789      F1796   1.358       .  S
C1790      C1791   1.414       .  A
C1791      C1792   1.397       .  A
C1791      F1798   1.353       .  S
C1792      C1793   1.408       .  A
C1792      F1797   1.358       .  S
C1793      C1794   1.414       .  A
C1794      F1795   1.353       .  S
C1799      C1800   1.419       .  A
C1799      C1804   1.399       .  A
C1799      F1806   1.353       .  S
C1800      C1801   1.405       .  A
C1801      C1802   1.399       .  A
C1801      F1808   1.357       .  S
C1802      C1803   1.419       .  A
C1802      F1807   1.353       .  S
C1803      C1804   1.405       .  A
C1804      F1805   1.357       .  S
C1809      C1810   1.416       .  A
C1809      C1814   1.398       .  A
C1809      F1816   1.353       .  S
C1810      C1811   1.407       .  A
C1811      C1812   1.398       .  A
C1811      F1818   1.358       .  S
C1812      C1813   1.416       .  A
C1812      F1817   1.353       .  S
C1813      C1814   1.407       .  A
C1814      F1815   1.358       .  S
C1819      C1820   1.415       .  A
C1819      C1824   1.394       .  A
C1819      F1826   1.354       .  S
C1820      C1821   1.405       .  A
C1821      C1822   1.394       .  A
C1821      F1828   1.357       .  S
C1822      C1823   1.415       .  A
C1822      F1827   1.354       .  S
C1823      C1824   1.405       .  A
C1824      F1825   1.357       .  S
C1829      C1830   1.417       .  A
C1829      C1834   1.402       .  A
C1829      F1836   1.353       .  S
C1830      C1831   1.408       .  A
C1831      C1832   1.402       .  A
C1831      F1838   1.358       .  S
C1832      C1833   1.417       .  A
C1832      F1837   1.353       .  S
C1833      C1834   1.408       .  A
C1834      F1835   1.358       .  S
C1839      C1840   1.406       .  A
C1839      C1844   1.395       .  A
C1839      F1846   1.357       .  S
C1840      C1841   1.415       .  A
C1841      C1842   1.395       .  A
C1841      F1848   1.354       .  S
C1842      C1843   1.406       .  A
C1842      F1847   1.357       .  S
C1843      C1844   1.415       .  A
C1844      F1845   1.354       .  S
O1849     Cu1857   2.222       .  S
O1849      C1859   1.296       .  A
O1850     Cu1857   2.205       .  S
O1850      C1860   1.293       .  A
O1851     Cu1857   2.227       .  S
O1851      C1861   1.297       .  A
O1852     Cu1857   2.203       .  S
O1852      C1862   1.294       .  A
O1853     Cu1858   1.883       .  S
O1853      C1862   1.241       .  A
O1854     Cu1858   1.875       .  S
O1854      C1861   1.242       .  A
O1855     Cu1858   1.881       .  S
O1855      C1860   1.245       .  A
O1856     Cu1858   1.887       .  S
O1856      C1859   1.241       .  A
Cu1857    Cu1858   2.101       .  S
C1859      C1935   1.608       .  S
C1860      C1937   1.600       .  S
C1861      C1941   1.605       .  S
C1862      C1933   1.598       .  S
O1863     Cu1871   1.888       .  S
O1863      C1873   1.243       .  A
O1864     Cu1871   1.875       .  S
O1864      C1874   1.241       .  A
O1865     Cu1871   1.871       .  S
O1865      C1875   1.243       .  A
O1866     Cu1871   1.882       .  S
O1866      C1876   1.242       .  A
O1867     Cu1872   2.235       .  S
O1867      C1876   1.296       .  A
O1868     Cu1872   2.213       .  S
O1868      C1875   1.294       .  A
O1869     Cu1872   2.229       .  S
O1869      C1874   1.298       .  A
O1870     Cu1872   2.227       .  S
O1870      C1873   1.294       .  A
Cu1871    Cu1872   2.108       .  S
C1873      C1939   1.602       .  S
C1874      C1935   1.607       .  S
C1875      C1933   1.592       .  S
C1876      C1945   1.602       .  S
O1877     Cu1885   1.894       .  S
O1877      C1887   1.241       .  A
O1878     Cu1885   1.884       .  S
O1878      C1888   1.244       .  A
O1879     Cu1885   1.881       .  S
O1879      C1889   1.241       .  A
O1880     Cu1885   1.882       .  S
O1880      C1890   1.240       .  A
O1881     Cu1886   2.213       .  S
O1881      C1890   1.295       .  A
O1882     Cu1886   2.192       .  S
O1882      C1889   1.293       .  A
O1883     Cu1886   2.217       .  S
O1883      C1888   1.295       .  A
O1884     Cu1886   2.215       .  S
O1884      C1887   1.295       .  A
Cu1885    Cu1886   2.085       .  S
C1887      C1943   1.605       .  S
C1888      C1933   1.602       .  S
C1889      C1937   1.591       .  S
C1890      C1939   1.599       .  S
O1891     Cu1899   2.208       .  S
O1891      C1901   1.295       .  A
O1892     Cu1899   2.211       .  S
O1892      C1902   1.295       .  A
O1893     Cu1899   2.234       .  S
O1893      C1903   1.296       .  A
O1894     Cu1899   2.211       .  S
O1894      C1904   1.293       .  A
O1895     Cu1900   1.881       .  S
O1895      C1904   1.243       .  A
O1896     Cu1900   1.877       .  S
O1896      C1903   1.241       .  A
O1897     Cu1900   1.872       .  S
O1897      C1902   1.241       .  A
O1898     Cu1900   1.884       .  S
O1898      C1901   1.239       .  A
Cu1899    Cu1900   2.101       .  S
C1901      C1941   1.600       .  S
C1902      C1943   1.596       .  S
C1903      C1947   1.598       .  S
C1904      C1937   1.592       .  S
O1905     Cu1913   2.208       .  S
O1905      C1915   1.296       .  A
O1906     Cu1913   2.232       .  S
O1906      C1916   1.294       .  A
O1907     Cu1913   2.233       .  S
O1907      C1917   1.295       .  A
O1908     Cu1913   2.237       .  S
O1908      C1918   1.297       .  A
O1909     Cu1914   1.889       .  S
O1909      C1918   1.244       .  A
O1910     Cu1914   1.888       .  S
O1910      C1917   1.245       .  A
O1911     Cu1914   1.892       .  S
O1911      C1916   1.245       .  A
O1912     Cu1914   1.870       .  S
O1912      C1915   1.241       .  A
Cu1913    Cu1914   2.102       .  S
C1915      C1947   1.599       .  S
C1916      C1935   1.606       .  S
C1917      C1941   1.606       .  S
C1918      C1945   1.614       .  S
O1919     Cu1927   1.873       .  S
O1919      C1929   1.240       .  A
O1920     Cu1927   1.883       .  S
O1920      C1930   1.245       .  A
O1921     Cu1927   1.892       .  S
O1921      C1931   1.244       .  A
O1922     Cu1927   1.872       .  S
O1922      C1932   1.243       .  A
O1923     Cu1928   2.226       .  S
O1923      C1932   1.297       .  A
O1924     Cu1928   2.229       .  S
O1924      C1931   1.296       .  A
O1925     Cu1928   2.215       .  S
O1925      C1930   1.292       .  A
O1926     Cu1928   2.216       .  S
O1926      C1929   1.297       .  A
Cu1927    Cu1928   2.108       .  S
C1929      C1945   1.603       .  S
C1930      C1943   1.599       .  S
C1931      C1947   1.613       .  S
C1932      C1939   1.607       .  S
C1933      C2107   1.526       .  S
C1934      C2003   1.592       .  S
C1934      C2015   1.598       .  S
C1934      C2031   1.602       .  S
C1934      C2104   1.526       .  S
C1935      C2094   1.541       .  S
C1936      C1976   1.606       .  S
C1936      C2001   1.607       .  S
C1936      C2017   1.608       .  S
C1936      C2097   1.541       .  S
C1937      C2087   1.524       .  S
C1938      C1961   1.592       .  S
C1938      C2018   1.600       .  S
C1938      C2029   1.591       .  S
C1938      C2084   1.524       .  S
C1939      C2074   1.532       .  S
C1940      C1987   1.607       .  S
C1940      C2002   1.602       .  S
C1940      C2030   1.599       .  S
C1940      C2077   1.532       .  S
C1941      C2067   1.535       .  S
C1942      C1959   1.600       .  S
C1942      C1974   1.606       .  S
C1942      C2016   1.605       .  S
C1942      C2064   1.535       .  S
C1943      C2057   1.530       .  S
C1944      C1960   1.596       .  S
C1944      C1990   1.599       .  S
C1944      C2032   1.605       .  S
C1944      C2054   1.530       .  S
C1945      C2044   1.541       .  S
C1946      C1973   1.614       .  S
C1946      C1989   1.603       .  S
C1946      C2004   1.602       .  S
C1946      C2047   1.541       .  S
C1947      C2034   1.535       .  S
C1948      C1962   1.598       .  S
C1948      C1975   1.599       .  S
C1948      C1988   1.613       .  S
C1948      C2037   1.535       .  S
O1949      C1959   1.295       .  A
O1950      C1960   1.295       .  A
O1951     Cu1957   2.211       .  S
O1951      C1961   1.293       .  A
O1952      C1962   1.296       .  A
O1953      C1962   1.241       .  A
O1954     Cu1958   1.881       .  S
O1954      C1961   1.243       .  A
O1955      C1960   1.241       .  A
O1956      C1959   1.239       .  A
Cu1957    Cu1958   2.101       .  S
O1963      C1973   1.244       .  A
O1964     Cu1971   1.888       .  S
O1964      C1974   1.245       .  A
O1965      C1975   1.241       .  A
O1966      C1976   1.245       .  A
O1967     Cu1972   2.232   1_655  S
O1967      C1976   1.294       .  A
O1968      C1975   1.296       .  A
O1969      C1974   1.295       .  A
O1970      C1973   1.297       .  A
O1977     Cu1985   2.226       .  S
O1977      C1987   1.297       .  A
O1978      C1988   1.296       .  A
O1979      C1989   1.297       .  A
O1980      C1990   1.292       .  A
O1981      C1990   1.245       .  A
O1982      C1989   1.240       .  A
O1983      C1988   1.244       .  A
O1984     Cu1986   1.872       .  S
O1984      C1987   1.243       .  A
Cu1985    Cu1986   2.108       .  S
O1991      C2001   1.241       .  A
O1992      C2002   1.243       .  A
O1993     Cu1999   1.871   1_565  S
O1993      C2003   1.243       .  A
O1994      C2004   1.242       .  A
O1995      C2004   1.296       .  A
O1996     Cu2000   2.213       .  S
O1996      C2003   1.294       .  A
O1997      C2002   1.294       .  A
O1998      C2001   1.298       .  A
Cu1999    Cu2000   2.108   1_545  S
O2005     Cu2013   1.883   1_665  S
O2005      C2015   1.241       .  A
O2006      C2016   1.242       .  A
O2007      C2017   1.241       .  A
O2008      C2018   1.245       .  A
O2009      C2018   1.293       .  A
O2010      C2017   1.296       .  A
O2011      C2016   1.297       .  A
O2012     Cu2014   2.203   1_655  S
O2012      C2015   1.294       .  A
Cu2013    Cu2014   2.101   1_545  S
O2019      C2029   1.293       .  A
O2020      C2030   1.295       .  A
O2021     Cu2027   2.217       .  S
O2021      C2031   1.295       .  A
O2022      C2032   1.295       .  A
O2023      C2032   1.241       .  A
O2024     Cu2028   1.884       .  S
O2024      C2031   1.244       .  A
O2025      C2030   1.240       .  A
O2026      C2029   1.241       .  A
Cu2027    Cu2028   2.085       .  S
C2033      C2034   1.419       .  A
C2033      C2038   1.399       .  A
C2033      F2040   1.354       .  S
C2034      C2035   1.405       .  A
C2035      C2036   1.399       .  A
C2035      F2042   1.357       .  S
C2036      C2037   1.419       .  A
C2036      F2041   1.354       .  S
C2037      C2038   1.405       .  A
C2038      F2039   1.357       .  S
C2043      C2044   1.420       .  A
C2043      C2048   1.401       .  A
C2043      F2050   1.353       .  S
C2044      C2045   1.406       .  A
C2045      C2046   1.401       .  A
C2045      F2052   1.357       .  S
C2046      C2047   1.420       .  A
C2046      F2051   1.353       .  S
C2047      C2048   1.406       .  A
C2048      F2049   1.357       .  S
C2053      C2054   1.408       .  A
C2053      C2058   1.397       .  A
C2053      F2060   1.358       .  S
C2054      C2055   1.414       .  A
C2055      C2056   1.397       .  A
C2055      F2062   1.353       .  S
C2056      C2057   1.408       .  A
C2056      F2061   1.358       .  S
C2057      C2058   1.414       .  A
C2058      F2059   1.353       .  S
C2063      C2064   1.419       .  A
C2063      C2068   1.399       .  A
C2063      F2070   1.353       .  S
C2064      C2065   1.405       .  A
C2065      C2066   1.399       .  A
C2065      F2072   1.357       .  S
C2066      C2067   1.419       .  A
C2066      F2071   1.353       .  S
C2067      C2068   1.405       .  A
C2068      F2069   1.357       .  S
C2073      C2074   1.416       .  A
C2073      C2078   1.398       .  A
C2073      F2080   1.353       .  S
C2074      C2075   1.407       .  A
C2075      C2076   1.398       .  A
C2075      F2082   1.358       .  S
C2076      C2077   1.416       .  A
C2076      F2081   1.353       .  S
C2077      C2078   1.407       .  A
C2078      F2079   1.358       .  S
C2083      C2084   1.415       .  A
C2083      C2088   1.394       .  A
C2083      F2090   1.354       .  S
C2084      C2085   1.405       .  A
C2085      C2086   1.394       .  A
C2085      F2092   1.357       .  S
C2086      C2087   1.415       .  A
C2086      F2091   1.354       .  S
C2087      C2088   1.405       .  A
C2088      F2089   1.357       .  S
C2093      C2094   1.417       .  A
C2093      C2098   1.402       .  A
C2093      F2100   1.353       .  S
C2094      C2095   1.408       .  A
C2095      C2096   1.402       .  A
C2095      F2102   1.358       .  S
C2096      C2097   1.417       .  A
C2096      F2101   1.353       .  S
C2097      C2098   1.408       .  A
C2098      F2099   1.358       .  S
C2103      C2104   1.406       .  A
C2103      C2108   1.395       .  A
C2103      F2110   1.357       .  S
C2104      C2105   1.415       .  A
C2105      C2106   1.395       .  A
C2105      F2112   1.354       .  S
C2106      C2107   1.406       .  A
C2106      F2111   1.357       .  S
C2107      C2108   1.415       .  A
C2108      F2109   1.354       .  S
