geometry optimzed in LAMMPS
_audit_creation_date              2020-11-30 
_audit_creation_method            'lammps2cif' 
_symmetry_space_group_name_H-M    'P1' 
_symmetry_Int_Tables_number       1 
_symmetry_cell_setting            triclinic 
loop_ 
_symmetry_equiv_pos_as_xyz 
  x,y,z 
_cell_length_a                    42.66157622374946 
_cell_length_b                    42.6615849949377 
_cell_length_c                    42.661589322459534 
_cell_angle_alpha                 90.00048606110018 
_cell_angle_beta                  90.00028345281612 
_cell_angle_gamma                 90.00099098008434 
loop_ 
_atom_site_label 
_atom_site_type_symbol 
_atom_site_fract_x 
_atom_site_fract_y 
_atom_site_fract_z 
_atom_site_charge 
C1          C  0.36618022  0.36619022  0.00006929     0.06520
C2          C  0.37470884  0.33437642  0.00004513    -0.09630
C3          C  0.35142474  0.31122760  0.50000689     0.04020
C4          C  0.31982762  0.31983492  0.49998910    -0.08160
C5          C  0.31121842  0.35143149  0.50000680     0.06510
C6          C  0.33436592  0.37471680  0.00004505    -0.07580
H7          H  0.39923499  0.32771244  0.00006608     0.12100
H8          H  0.30182925  0.30183550  0.49996592     0.09630
H9          H  0.32770048  0.39924254  0.00006594     0.09480
C10         C  0.36618388  0.16234792  0.99994086     0.06520
C11         C  0.37471175  0.19416249  0.99996208    -0.09630
C12         C  0.35142716  0.21731036  0.49999426     0.04020
C13         C  0.31983021  0.20870173  0.50000867    -0.08160
C14         C  0.31122108  0.17710497  0.49999398     0.06510
C15         C  0.33436910  0.15382037  0.99996181    -0.07580
H16         H  0.39923774  0.20082783  0.99994404     0.12100
H17         H  0.30183172  0.22670047  0.50002769     0.09630
H18         H  0.32770367  0.12929444  0.99994356     0.09480
C19         C  0.16233825  0.16234401  0.00006856     0.06520
C20         C  0.19415315  0.15381702  0.50004439    -0.09630
C21         C  0.21730184  0.17710215  0.50000610     0.04020
C22         C  0.20869354  0.20869885  0.49998829    -0.08160
C23         C  0.17709695  0.21730750  0.50000602     0.06510
C24         C  0.15381168  0.19415901  0.50004432    -0.07580
H25         H  0.20081816  0.12929120  0.00006536     0.12100
H26         H  0.22669257  0.22669769  0.49996511     0.09630
H27         H  0.12928594  0.20082426  0.00006525     0.09480
C28         C  0.16233699  0.36619024  0.99994164     0.06520
C29         C  0.19415176  0.37471856  0.99996257    -0.09630
C30         C  0.21730033  0.35143425  0.49999421     0.04020
C31         C  0.20869233  0.31983728  0.50000835    -0.08160
C32         C  0.17709591  0.31122739  0.49999393     0.06510
C33         C  0.15381051  0.33437493  0.99996231    -0.07580
H34         H  0.20081672  0.39924462  0.99994476     0.12100
H35         H  0.22669149  0.30183917  0.50002702     0.09630
H36         H  0.12928481  0.32770873  0.99994430     0.09480
C37         C  0.36617039  0.01434747  0.35192562     0.06520
C38         C  0.33435505  0.01432598  0.36045186    -0.09630
C39         C  0.31120691  0.01429312  0.33716634     0.04020
C40         C  0.31981608  0.01427825  0.30556990    -0.08160
C41         C  0.35141283  0.01429323  0.29696170     0.06510
C42         C  0.37469775  0.01432611  0.32011054    -0.07580
H43         H  0.32768924  0.01434421  0.38497750     0.12100
H44         H  0.30181751  0.01425869  0.28757079     0.09630
H45         H  0.39922363  0.01434444  0.31344553     0.09480
C46         C  0.16232412  0.01421813  0.35192463     0.06520
C47         C  0.19413931  0.01424225  0.36045069    -0.09630
C48         C  0.21728678  0.01428023  0.33716512     0.04020
C49         C  0.20867679  0.01429772  0.30556882    -0.08160
C50         C  0.17707972  0.01428005  0.29696133     0.06510
C51         C  0.15379550  0.01424210  0.32011015    -0.07580
H52         H  0.20080552  0.01422139  0.38497631     0.12100
H53         H  0.22667484  0.01432065  0.28756940     0.09630
H54         H  0.12926938  0.01422111  0.31344566     0.09480
C55         C  0.16232525  0.01434595  0.14808206     0.06520
C56         C  0.15379821  0.01432465  0.17989628    -0.09630
C57         C  0.17708320  0.01429213  0.20304374     0.04020
C58         C  0.20867993  0.01427740  0.19443464    -0.08160
C59         C  0.21728769  0.01429223  0.16283752     0.06510
C60         C  0.19413915  0.01432476  0.13955344    -0.07580
H61         H  0.12927237  0.01434282  0.18656168     0.12100
H62         H  0.22667909  0.01425812  0.21243304     0.09630
H63         H  0.20080342  0.01434301  0.11502730     0.09480
C64         C  0.36616786  0.01421998  0.14807968     0.06520
C65         C  0.37469441  0.01424362  0.17989456    -0.09630
C66         C  0.35140922  0.01428063  0.20304218     0.04020
C67         C  0.31981266  0.01429758  0.19443253    -0.08160
C68         C  0.31120492  0.01428044  0.16283540     0.06510
C69         C  0.33435352  0.01424345  0.13955119    -0.07580
H70         H  0.39922015  0.01422319  0.18656040     0.12100
H71         H  0.30181342  0.01431982  0.21243071     0.09630
H72         H  0.32768895  0.01422288  0.11502508     0.09480
C73         C  0.01420069  0.16233349  0.35193211     0.06520
C74         C  0.01422468  0.15380457  0.32011799    -0.09630
C75         C  0.01426198  0.17708856  0.29696944     0.04020
C76         C  0.01427900  0.20868570  0.30557712    -0.08160
C77         C  0.01426156  0.21729539  0.33717366     0.06510
C78         C  0.01422419  0.19414813  0.36045881    -0.07580
H79         H  0.01420428  0.12927838  0.31345359     0.12100
H80         H  0.01430148  0.22668383  0.28757790     0.09630
H81         H  0.01420342  0.20081405  0.38498456     0.09480
C82         C  0.01432632  0.36617735  0.35193474     0.06520
C83         C  0.01430549  0.33436250  0.36046201    -0.09630
C84         C  0.01427354  0.31121400  0.33717699     0.04020
C85         C  0.01425900  0.31982219  0.30558027    -0.08160
C86         C  0.01427326  0.35141867  0.29697131     0.06510
C87         C  0.01430518  0.37470396  0.32011964    -0.07580
H88         H  0.01432358  0.32769741  0.38498786     0.12100
H89         H  0.01424014  0.30182313  0.28758162     0.09630
H90         H  0.01432303  0.39922969  0.31345419     0.09480
C91         C  0.01432802  0.16233368  0.14809004     0.06520
C92         C  0.01430685  0.15380556  0.17990408    -0.09570
C93         C  0.01427413  0.17708994  0.20305245     0.04020
C94         C  0.01425909  0.20868702  0.19444458    -0.08160
C95         C  0.01427384  0.21729601  0.16284785     0.06510
C96         C  0.01430654  0.19414807  0.13956294    -0.07580
H97         H  0.01432533  0.12927951  0.18656862     0.12100
H98         H  0.01423966  0.22668553  0.21244370     0.09630
H99         H  0.01432478  0.20081324  0.11503710     0.09480
C100        C  0.01419834  0.36617855  0.14808812     0.06520
C101        C  0.01422232  0.37470437  0.17990358    -0.09630
C102        C  0.01426072  0.35141868  0.20305109     0.04020
C103        C  0.01427875  0.31982235  0.19444107    -0.08160
C104        C  0.01426114  0.31121465  0.16284404     0.06510
C105        C  0.01422281  0.33436369  0.13955975    -0.07580
H106        H  0.01420113  0.39922994  0.18657000     0.12100
H107        H  0.01430199  0.30182300  0.21243913     0.09630
H108        H  0.01420197  0.32769905  0.11503368     0.09480
O109        O  0.46267943  0.42469434  0.00021291    -0.76740
O110        O  0.46268496  0.10384083  0.99981122    -0.78300
O111        O  0.42467677  0.01407238  0.05157989    -0.75320
O112        O  0.42467612  0.01447198  0.44843396    -0.73700
O113        O  0.46267570  0.01446792  0.41043498    -0.75490
O114        O  0.46267486  0.01406792  0.08958095    -0.76430
O115        O  0.42468325  0.06584292  0.99980869    -0.77750
O116        O  0.42468025  0.46269401  0.00021018    -0.78040
Eu117      Eu  0.45051921  0.01426715  0.00000779     2.39200
O118        O  0.48241861  0.04610142  0.46817302    -0.85550
O119        O  0.48241410  0.48242761  0.03184414    -0.89150
C120        C  0.43387594  0.43389037  0.00024983     1.05540
C121        C  0.43388044  0.09464661  0.99977203     1.05350
C122        C  0.43387110  0.01403406  0.08038426     1.05300
C123        C  0.43387116  0.01450980  0.41962960     1.03160
H124        H  0.46936027  0.05915949  0.04490336     0.32910
O125        O  0.48242055  0.04609796  0.03184260    -0.97940
H126        H  0.46935770  0.46936940  0.45511679     0.32940
O127        O  0.48241909  0.48243019  0.46817777    -1.00480
O128        O  0.06583075  0.10383891  0.00021211    -0.77710
O129        O  0.06582963  0.42469188  0.99981234    -0.77240
O130        O  0.01445356  0.06583364  0.08958436    -0.75680
O131        O  0.01405369  0.06583525  0.41043831    -0.79020
O132        O  0.01445228  0.46268507  0.41043797    -0.76880
O133        O  0.01405073  0.46268807  0.08958572    -0.75520
O134        O  0.10382235  0.01447061  0.05158294    -0.77050
O135        O  0.10382491  0.01406879  0.44843317    -0.78970
O136        O  0.06582247  0.01446792  0.08958222    -0.75710
O137        O  0.06582409  0.01406648  0.41043470    -0.78380
O138        O  0.01445810  0.10383405  0.05158598    -0.74120
O139        O  0.01405446  0.42468907  0.05158569    -0.74150
O140        O  0.01445481  0.42468688  0.44843847    -0.73800
O141        O  0.01405702  0.10383571  0.44843744    -0.77290
O142        O  0.10382907  0.06583915  0.00021030    -0.76720
O143        O  0.10382876  0.46269236  0.99981034    -0.75040
Eu144      Eu  0.01425613  0.07799738  0.00001093     2.39770
Eu145      Eu  0.01425398  0.45053031  0.00001118     2.39570
Eu146      Eu  0.01425004  0.01426191  0.06374299     2.38400
Eu147      Eu  0.01425112  0.01426164  0.43627593     2.39880
Eu148      Eu  0.07798656  0.01426496  0.00000859     2.39790
O149        O  0.04608881  0.48242730  0.46817331    -0.89460
O150        O  0.04608880  0.04609813  0.03184683    -0.88350
C151        C  0.09463484  0.09464357  0.00024929     1.05710
C152        C  0.09463389  0.43388790  0.99977358     1.04430
C153        C  0.01449464  0.09463755  0.08038951     1.03820
C154        C  0.01401811  0.09463922  0.41963375     1.05830
C155        C  0.01449210  0.43388103  0.41963399     1.04750
C156        C  0.01401515  0.43388370  0.08039027     1.03600
C157        C  0.09462612  0.01450903  0.08038645     1.03650
C158        C  0.09462850  0.01403129  0.41962920     1.06270
H159        H  0.05914733  0.46937147  0.04490463     0.33640
O160        O  0.04608642  0.48243178  0.03184334    -1.01620
H161        H  0.05914647  0.05915701  0.45511558     0.35690
O162        O  0.04608542  0.04609593  0.46817624    -1.04180
C163        C  0.01412058  0.39006417  0.12420514    -0.09890
C164        C  0.01404550  0.41006899  0.10420360    -0.11450
C165        C  0.01426923  0.25013412  0.15526283    -0.09890
C166        C  0.01426677  0.27837611  0.15525999    -0.11450
C167        C  0.01439893  0.13845102  0.12420644    -0.09890
C168        C  0.01446871  0.11844940  0.10420308    -0.11450
C169        C  0.01426617  0.35900154  0.23589020    -0.09890
C170        C  0.01426864  0.35900180  0.26413241    -0.11450
C171        C  0.01446599  0.41006611  0.39582101    -0.09890
C172        C  0.01439656  0.39006202  0.37581868    -0.11450
C173        C  0.01426740  0.16950329  0.26413171    -0.09890
C174        C  0.01426972  0.16950438  0.23589001    -0.11450
C175        C  0.01426679  0.25013363  0.34475805    -0.09890
C176        C  0.01426912  0.27837555  0.34476031    -0.11450
C177        C  0.01404882  0.11845099  0.39582037    -0.09890
C178        C  0.01412371  0.13845168  0.37581634    -0.11450
C179        C  0.39005237  0.01414291  0.12419720    -0.09890
C180        C  0.41005666  0.01406709  0.10419612    -0.11450
C181        C  0.27836702  0.01428555  0.15525037    -0.09890
C182        C  0.25012526  0.01428779  0.15525166    -0.11450
C183        C  0.13844162  0.01441635  0.12420011    -0.09890
C184        C  0.11843848  0.01448510  0.10419873    -0.11450
C185        C  0.16949809  0.01428763  0.23588150    -0.09890
C186        C  0.16949535  0.01428533  0.26412327    -0.11450
C187        C  0.11844071  0.01406401  0.39581455    -0.09890
C188        C  0.13844162  0.01414018  0.37580975    -0.11450
C189        C  0.35899602  0.01428851  0.26412288    -0.09890
C190        C  0.35899350  0.01428601  0.23588077    -0.11450
C191        C  0.27836790  0.01428833  0.34474910    -0.09890
C192        C  0.25012572  0.01428577  0.34474824    -0.11450
C193        C  0.39005441  0.01441794  0.37581085    -0.09890
C194        C  0.41005710  0.01448637  0.39581499    -0.11450
C195        C  0.13845224  0.39007331  0.99987143    -0.09890
C196        C  0.11844821  0.41007508  0.99980135    -0.11450
C197        C  0.16951287  0.27838836  0.49999818    -0.09890
C198        C  0.16951339  0.25014620  0.50000051    -0.11450
C199        C  0.11844953  0.11845718  0.00022034    -0.09890
C200        C  0.13845348  0.13845989  0.00014597    -0.11450
C201        C  0.27838256  0.16952026  0.49999831    -0.09890
C202        C  0.25014047  0.16951875  0.50000063    -0.11450
C203        C  0.41006876  0.11846093  0.99979967    -0.09890
C204        C  0.39006704  0.13846435  0.99987005    -0.11450
C205        C  0.27838050  0.35901601  0.50000119    -0.09890
C206        C  0.25013866  0.35901844  0.49999871    -0.11450
C207        C  0.35901171  0.25014840  0.49999886    -0.09890
C208        C  0.35901051  0.27839013  0.50000134    -0.11450
C209        C  0.39006222  0.39007422  0.00014675    -0.09890
C210        C  0.41006356  0.41007771  0.00022110    -0.11450
C211        C  0.36618023  0.36619022  0.50006932     0.06520
C212        C  0.37470885  0.33437641  0.50004516    -0.09630
C213        C  0.35142473  0.31122760  0.00000687     0.04020
C214        C  0.31982761  0.31983492  0.99998909    -0.08160
C215        C  0.31121840  0.35143149  0.00000679     0.06510
C216        C  0.33436593  0.37471680  0.50004507    -0.07580
H217        H  0.39923500  0.32771243  0.50006611     0.12100
H218        H  0.30182924  0.30183550  0.99996591     0.09630
H219        H  0.32770049  0.39924253  0.50006596     0.09480
C220        C  0.36618388  0.16234791  0.49994087     0.06520
C221        C  0.37471175  0.19416249  0.49996209    -0.09630
C222        C  0.35142715  0.21731036  0.99999425     0.04020
C223        C  0.31983021  0.20870173  0.00000867    -0.08160
C224        C  0.31122108  0.17710497  0.99999398     0.06510
C225        C  0.33436910  0.15382037  0.49996181    -0.07580
H226        H  0.39923774  0.20082782  0.49994405     0.12100
H227        H  0.30183172  0.22670047  0.00002769     0.09630
H228        H  0.32770367  0.12929444  0.49994355     0.09480
C229        C  0.16233824  0.16234402  0.50006855     0.06520
C230        C  0.19415316  0.15381701  0.00004440    -0.09630
C231        C  0.21730184  0.17710214  0.00000613     0.04020
C232        C  0.20869354  0.20869885  0.99998833    -0.08160
C233        C  0.17709694  0.21730749  0.00000606     0.06510
C234        C  0.15381168  0.19415900  0.00004433    -0.07580
H235        H  0.20081815  0.12929121  0.50006537     0.12100
H236        H  0.22669257  0.22669769  0.99996517     0.09630
H237        H  0.12928594  0.20082428  0.50006524     0.09480
C238        C  0.16233701  0.36619026  0.49994162     0.06520
C239        C  0.19415178  0.37471857  0.49996256    -0.09630
C240        C  0.21730032  0.35143424  0.99999422     0.04020
C241        C  0.20869231  0.31983727  0.00000837    -0.08160
C242        C  0.17709589  0.31122737  0.99999396     0.06510
C243        C  0.15381053  0.33437495  0.49996229    -0.07580
H244        H  0.20081674  0.39924463  0.49994476     0.12100
H245        H  0.22669147  0.30183916  0.00002704     0.09630
H246        H  0.12928483  0.32770874  0.49994428     0.09480
C247        C  0.36617038  0.01434750  0.85192563     0.06520
C248        C  0.33435503  0.01432602  0.86045186    -0.09630
C249        C  0.31120690  0.01429316  0.83716634     0.04020
C250        C  0.31981608  0.01427827  0.80556990    -0.08160
C251        C  0.35141283  0.01429324  0.79696171     0.06510
C252        C  0.37469774  0.01432612  0.82011055    -0.07580
H253        H  0.32768922  0.01434426  0.88497750     0.12100
H254        H  0.30181751  0.01425870  0.78757079     0.09630
H255        H  0.39922362  0.01434444  0.81344554     0.09480
C256        C  0.16232411  0.01421814  0.85192462     0.06520
C257        C  0.19413930  0.01424227  0.86045068    -0.09630
C258        C  0.21728677  0.01428025  0.83716511     0.04020
C259        C  0.20867678  0.01429774  0.80556880    -0.08160
C260        C  0.17707971  0.01428006  0.79696131     0.06510
C261        C  0.15379549  0.01424210  0.82011014    -0.07580
H262        H  0.20080551  0.01422141  0.88497629     0.12100
H263        H  0.22667483  0.01432067  0.78756939     0.09630
H264        H  0.12926936  0.01422111  0.81344564     0.09480
C265        C  0.16232526  0.01434596  0.64808205     0.06520
C266        C  0.15379821  0.01432467  0.67989626    -0.09630
C267        C  0.17708320  0.01429214  0.70304373     0.04020
C268        C  0.20867993  0.01427740  0.69443463    -0.08160
C269        C  0.21728770  0.01429221  0.66283752     0.06510
C270        C  0.19413917  0.01432476  0.63955344    -0.07580
H271        H  0.12927237  0.01434284  0.68656166     0.12100
H272        H  0.22667909  0.01425810  0.71243304     0.09630
H273        H  0.20080343  0.01434301  0.61502729     0.09480
C274        C  0.36616787  0.01421991  0.64807969     0.06520
C275        C  0.37469442  0.01424357  0.67989457    -0.09630
C276        C  0.35140923  0.01428058  0.70304219     0.04020
C277        C  0.31981267  0.01429753  0.69443254    -0.08160
C278        C  0.31120493  0.01428038  0.66283541     0.06510
C279        C  0.33435353  0.01424339  0.63955120    -0.07580
H280        H  0.39922016  0.01422314  0.68656042     0.12100
H281        H  0.30181343  0.01431979  0.71243073     0.09630
H282        H  0.32768896  0.01422282  0.61502509     0.09480
C283        C  0.01420068  0.16233350  0.85193211     0.06520
C284        C  0.01422468  0.15380458  0.82011799    -0.09630
C285        C  0.01426199  0.17708857  0.79696944     0.04020
C286        C  0.01427901  0.20868571  0.80557712    -0.08160
C287        C  0.01426156  0.21729540  0.83717365     0.06510
C288        C  0.01422418  0.19414815  0.86045881    -0.07580
H289        H  0.01420428  0.12927839  0.81345359     0.12100
H290        H  0.01430151  0.22668384  0.78757790     0.09630
H291        H  0.01420341  0.20081407  0.88498456     0.09480
C292        C  0.01432633  0.36617737  0.85193474     0.06520
C293        C  0.01430550  0.33436251  0.86046201    -0.09630
C294        C  0.01427354  0.31121401  0.83717698     0.04020
C295        C  0.01425899  0.31982221  0.80558026    -0.08160
C296        C  0.01427325  0.35141869  0.79697130     0.06510
C297        C  0.01430518  0.37470398  0.82011963    -0.07580
H298        H  0.01432359  0.32769742  0.88498786     0.12100
H299        H  0.01424012  0.30182314  0.78758161     0.09630
H300        H  0.01432302  0.39922970  0.81345418     0.09480
C301        C  0.01432802  0.16233368  0.64809005     0.06520
C302        C  0.01430687  0.15380556  0.67990408    -0.09570
C303        C  0.01427415  0.17708994  0.70305245     0.04020
C304        C  0.01425911  0.20868702  0.69444458    -0.08160
C305        C  0.01427386  0.21729601  0.66284784     0.06510
C306        C  0.01430655  0.19414806  0.63956294    -0.07580
H307        H  0.01432534  0.12927951  0.68656863     0.12100
H308        H  0.01423968  0.22668553  0.71244370     0.09630
H309        H  0.01432477  0.20081324  0.61503709     0.09480
C310        C  0.01419833  0.36617855  0.64808811     0.06520
C311        C  0.01422230  0.37470437  0.67990357    -0.09630
C312        C  0.01426070  0.35141869  0.70305109     0.04020
C313        C  0.01427873  0.31982235  0.69444107    -0.08160
C314        C  0.01426113  0.31121465  0.66284404     0.06510
C315        C  0.01422280  0.33436369  0.63955975    -0.07580
H316        H  0.01420110  0.39922994  0.68656999     0.12100
H317        H  0.01430197  0.30182300  0.71243914     0.09630
H318        H  0.01420198  0.32769904  0.61503368     0.09480
O319        O  0.46267943  0.42469435  0.50021292    -0.76740
O320        O  0.46268496  0.10384083  0.49981123    -0.78300
O321        O  0.42467678  0.01407236  0.55157990    -0.75320
O322        O  0.42467612  0.01447199  0.94843397    -0.73700
O323        O  0.46267569  0.01446793  0.91043498    -0.75490
O324        O  0.46267487  0.01406789  0.58958096    -0.76430
O325        O  0.42468325  0.06584292  0.49980870    -0.77750
O326        O  0.42468025  0.46269401  0.50021019    -0.78040
Eu327      Eu  0.45051921  0.01426715  0.50000780     2.39200
O328        O  0.48241861  0.04610143  0.96817302    -0.85550
O329        O  0.48241410  0.48242760  0.53184414    -0.89150
C330        C  0.43387594  0.43389038  0.50024984     1.05540
C331        C  0.43388043  0.09464661  0.49977204     1.05350
C332        C  0.43387111  0.01403403  0.58038427     1.05300
C333        C  0.43387115  0.01450982  0.91962960     1.03160
H334        H  0.46936027  0.05915948  0.54490337     0.32910
O335        O  0.48242055  0.04609796  0.53184261    -0.97940
H336        H  0.46935771  0.46936940  0.95511679     0.32940
O337        O  0.48241910  0.48243019  0.96817777    -1.00480
O338        O  0.06583075  0.10383892  0.50021213    -0.77710
O339        O  0.06582963  0.42469188  0.49981233    -0.77240
O340        O  0.01445355  0.06583364  0.58958436    -0.75680
O341        O  0.01405368  0.06583526  0.91043831    -0.79020
O342        O  0.01445229  0.46268508  0.91043798    -0.76880
O343        O  0.01405072  0.46268806  0.58958571    -0.75520
O344        O  0.10382235  0.01447063  0.55158294    -0.77050
O345        O  0.10382490  0.01406879  0.94843315    -0.78970
O346        O  0.06582247  0.01446793  0.58958223    -0.75710
O347        O  0.06582409  0.01406648  0.91043469    -0.78380
O348        O  0.01445809  0.10383404  0.55158599    -0.74120
O349        O  0.01405447  0.42468906  0.55158568    -0.74150
O350        O  0.01445482  0.42468689  0.94843847    -0.73800
O351        O  0.01405702  0.10383572  0.94843744    -0.77290
O352        O  0.10382907  0.06583916  0.50021031    -0.76720
O353        O  0.10382877  0.46269237  0.49981035    -0.75040
Eu354      Eu  0.01425612  0.07799738  0.50001093     2.39770
Eu355      Eu  0.01425398  0.45053030  0.50001117     2.39570
Eu356      Eu  0.01425003  0.01426191  0.56374299     2.38400
Eu357      Eu  0.01425111  0.01426165  0.93627593     2.39880
Eu358      Eu  0.07798655  0.01426497  0.50000859     2.39790
O359        O  0.04608881  0.48242731  0.96817331    -0.89460
O360        O  0.04608879  0.04609814  0.53184683    -0.88350
C361        C  0.09463483  0.09464358  0.50024931     1.05710
C362        C  0.09463390  0.43388790  0.49977358     1.04430
C363        C  0.01449463  0.09463755  0.58038951     1.03820
C364        C  0.01401810  0.09463923  0.91963375     1.05830
C365        C  0.01449211  0.43388103  0.91963399     1.04750
C366        C  0.01401515  0.43388369  0.58039026     1.03600
C367        C  0.09462612  0.01450905  0.58038645     1.03650
C368        C  0.09462849  0.01403129  0.91962919     1.06270
H369        H  0.05914732  0.46937146  0.54490463     0.33640
O370        O  0.04608641  0.48243177  0.53184334    -1.01620
H371        H  0.05914647  0.05915701  0.95511558     0.35690
O372        O  0.04608542  0.04609593  0.96817623    -1.04180
C373        C  0.01412058  0.39006416  0.62420513    -0.09890
C374        C  0.01404550  0.41006897  0.60420359    -0.11450
C375        C  0.01426924  0.25013411  0.65526283    -0.09890
C376        C  0.01426677  0.27837611  0.65525999    -0.11450
C377        C  0.01439893  0.13845102  0.62420644    -0.09890
C378        C  0.01446870  0.11844940  0.60420309    -0.11450
C379        C  0.01426614  0.35900155  0.73589020    -0.09890
C380        C  0.01426862  0.35900182  0.76413240    -0.11450
C381        C  0.01446600  0.41006612  0.89582101    -0.09890
C382        C  0.01439657  0.39006203  0.87581868    -0.11450
C383        C  0.01426742  0.16950330  0.76413171    -0.09890
C384        C  0.01426974  0.16950438  0.73589001    -0.11450
C385        C  0.01426679  0.25013365  0.84475805    -0.09890
C386        C  0.01426913  0.27837556  0.84476031    -0.11450
C387        C  0.01404881  0.11845100  0.89582037    -0.09890
C388        C  0.01412370  0.13845169  0.87581634    -0.11450
C389        C  0.39005239  0.01414285  0.62419721    -0.09890
C390        C  0.41005667  0.01406704  0.60419613    -0.11450
C391        C  0.27836703  0.01428551  0.65525038    -0.09890
C392        C  0.25012527  0.01428775  0.65525167    -0.11450
C393        C  0.13844163  0.01441637  0.62420010    -0.09890
C394        C  0.11843849  0.01448512  0.60419873    -0.11450
C395        C  0.16949808  0.01428764  0.73588149    -0.09890
C396        C  0.16949534  0.01428534  0.76412325    -0.11450
C397        C  0.11844070  0.01406401  0.89581454    -0.09890
C398        C  0.13844161  0.01414019  0.87580973    -0.11450
C399        C  0.35899602  0.01428850  0.76412289    -0.09890
C400        C  0.35899352  0.01428598  0.73588078    -0.11450
C401        C  0.27836788  0.01428837  0.84474909    -0.09890
C402        C  0.25012571  0.01428580  0.84474823    -0.11450
C403        C  0.39005439  0.01441797  0.87581086    -0.09890
C404        C  0.41005709  0.01448640  0.89581499    -0.11450
C405        C  0.13845226  0.39007332  0.49987142    -0.09890
C406        C  0.11844822  0.41007509  0.49980135    -0.11450
C407        C  0.16951285  0.27838834  0.99999822    -0.09890
C408        C  0.16951338  0.25014618  0.00000054    -0.11450
C409        C  0.11844952  0.11845719  0.50022036    -0.09890
C410        C  0.13845347  0.13845990  0.50014599    -0.11450
C411        C  0.27838256  0.16952026  0.99999832    -0.09890
C412        C  0.25014047  0.16951875  0.00000066    -0.11450
C413        C  0.41006875  0.11846093  0.49979967    -0.09890
C414        C  0.39006704  0.13846435  0.49987006    -0.11450
C415        C  0.27838049  0.35901600  0.00000118    -0.09890
C416        C  0.25013864  0.35901842  0.99999871    -0.11450
C417        C  0.35901171  0.25014840  0.99999884    -0.09890
C418        C  0.35901050  0.27839014  0.00000132    -0.11450
C419        C  0.39006223  0.39007422  0.50014677    -0.09890
C420        C  0.41006356  0.41007771  0.50022112    -0.11450
C421        C  0.36618022  0.86619022  0.00006929     0.06520
C422        C  0.37470885  0.83437641  0.00004513    -0.09630
C423        C  0.35142472  0.81122759  0.50000689     0.04020
C424        C  0.31982760  0.81983490  0.49998910    -0.08160
C425        C  0.31121839  0.85143147  0.50000680     0.06510
C426        C  0.33436592  0.87471679  0.00004505    -0.07580
H427        H  0.39923500  0.82771244  0.00006608     0.12100
H428        H  0.30182922  0.80183549  0.49996592     0.09630
H429        H  0.32770047  0.89924252  0.00006594     0.09480
C430        C  0.36618389  0.66234792  0.99994086     0.06520
C431        C  0.37471176  0.69416249  0.99996208    -0.09630
C432        C  0.35142714  0.71731035  0.49999426     0.04020
C433        C  0.31983019  0.70870172  0.50000867    -0.08160
C434        C  0.31122106  0.67710496  0.49999398     0.06510
C435        C  0.33436911  0.65382037  0.99996181    -0.07580
H436        H  0.39923775  0.70082783  0.99994404     0.12100
H437        H  0.30183170  0.72670047  0.50002769     0.09630
H438        H  0.32770368  0.62929444  0.99994356     0.09480
C439        C  0.16233826  0.66234400  0.00006856     0.06520
C440        C  0.19415314  0.65381700  0.50004439    -0.09630
C441        C  0.21730182  0.67710214  0.50000610     0.04020
C442        C  0.20869352  0.70869885  0.49998829    -0.08160
C443        C  0.17709692  0.71730748  0.50000602     0.06510
C444        C  0.15381166  0.69415899  0.50004432    -0.07580
H445        H  0.20081817  0.62929119  0.00006536     0.12100
H446        H  0.22669254  0.72669769  0.49996511     0.09630
H447        H  0.12928596  0.70082425  0.00006525     0.09480
C448        C  0.16233699  0.86619022  0.99994164     0.06520
C449        C  0.19415176  0.87471854  0.99996257    -0.09630
C450        C  0.21730030  0.85143422  0.49999421     0.04020
C451        C  0.20869229  0.81983725  0.50000835    -0.08160
C452        C  0.17709587  0.81122736  0.49999393     0.06510
C453        C  0.15381052  0.83437491  0.99996231    -0.07580
H454        H  0.20081672  0.89924460  0.99994476     0.12100
H455        H  0.22669145  0.80183914  0.50002702     0.09630
H456        H  0.12928482  0.82770871  0.99994430     0.09480
C457        C  0.36617037  0.51434749  0.35192563     0.06520
C458        C  0.33435503  0.51432601  0.36045186    -0.09630
C459        C  0.31120689  0.51429314  0.33716634     0.04020
C460        C  0.31981607  0.51427824  0.30556990    -0.08160
C461        C  0.35141282  0.51429321  0.29696171     0.06510
C462        C  0.37469773  0.51432611  0.32011055    -0.07580
H463        H  0.32768922  0.51434426  0.38497750     0.12100
H464        H  0.30181750  0.51425867  0.28757079     0.09630
H465        H  0.39922361  0.51434443  0.31344554     0.09480
C466        C  0.16232410  0.51421815  0.35192463     0.06520
C467        C  0.19413930  0.51424228  0.36045069    -0.09630
C468        C  0.21728676  0.51428025  0.33716512     0.04020
C469        C  0.20867677  0.51429775  0.30556881    -0.08160
C470        C  0.17707970  0.51428007  0.29696132     0.06510
C471        C  0.15379548  0.51424211  0.32011015    -0.07580
H472        H  0.20080550  0.51422141  0.38497630     0.12100
H473        H  0.22667482  0.51432068  0.28756940     0.09630
H474        H  0.12926936  0.51422112  0.31344565     0.09480
C475        C  0.16232526  0.51434599  0.14808205     0.06520
C476        C  0.15379821  0.51432469  0.17989627    -0.09630
C477        C  0.17708319  0.51429215  0.20304374     0.04020
C478        C  0.20867993  0.51427740  0.19443464    -0.08160
C479        C  0.21728769  0.51429223  0.16283752     0.06510
C480        C  0.19413916  0.51432478  0.13955344    -0.07580
H481        H  0.12927236  0.51434287  0.18656167     0.12100
H482        H  0.22667908  0.51425810  0.21243304     0.09630
H483        H  0.20080343  0.51434304  0.11502730     0.09480
C484        C  0.36616787  0.51421993  0.14807969     0.06520
C485        C  0.37469442  0.51424357  0.17989457    -0.09630
C486        C  0.35140922  0.51428057  0.20304219     0.04020
C487        C  0.31981267  0.51429752  0.19443253    -0.08160
C488        C  0.31120492  0.51428039  0.16283540     0.06510
C489        C  0.33435353  0.51424341  0.13955119    -0.07580
H490        H  0.39922015  0.51422314  0.18656041     0.12100
H491        H  0.30181342  0.51431976  0.21243072     0.09630
H492        H  0.32768896  0.51422285  0.11502508     0.09480
C493        C  0.01420068  0.66233350  0.35193211     0.06520
C494        C  0.01422468  0.65380458  0.32011800    -0.09630
C495        C  0.01426199  0.67708857  0.29696945     0.04020
C496        C  0.01427902  0.70868571  0.30557712    -0.08160
C497        C  0.01426157  0.71729540  0.33717366     0.06510
C498        C  0.01422418  0.69414814  0.36045881    -0.07580
H499        H  0.01420428  0.62927839  0.31345360     0.12100
H500        H  0.01430151  0.72668383  0.28757790     0.09630
H501        H  0.01420341  0.70081407  0.38498456     0.09480
C502        C  0.01432633  0.86617736  0.35193474     0.06520
C503        C  0.01430550  0.83436250  0.36046201    -0.09630
C504        C  0.01427355  0.81121400  0.33717699     0.04020
C505        C  0.01425900  0.81982220  0.30558027    -0.08160
C506        C  0.01427325  0.85141868  0.29697131     0.06510
C507        C  0.01430518  0.87470397  0.32011964    -0.07580
H508        H  0.01432359  0.82769741  0.38498786     0.12100
H509        H  0.01424014  0.80182314  0.28758161     0.09630
H510        H  0.01432302  0.89922970  0.31345419     0.09480
C511        C  0.01432803  0.66233368  0.14809005     0.06520
C512        C  0.01430687  0.65380556  0.17990409    -0.09570
C513        C  0.01427415  0.67708994  0.20305245     0.04020
C514        C  0.01425911  0.70868702  0.19444459    -0.08160
C515        C  0.01427386  0.71729601  0.16284785     0.06510
C516        C  0.01430655  0.69414807  0.13956295    -0.07580
H517        H  0.01432535  0.62927951  0.18656863     0.12100
H518        H  0.01423968  0.72668553  0.21244371     0.09630
H519        H  0.01432478  0.70081324  0.11503710     0.09480
C520        C  0.01419833  0.86617855  0.14808812     0.06520
C521        C  0.01422230  0.87470437  0.17990358    -0.09630
C522        C  0.01426070  0.85141868  0.20305109     0.04020
C523        C  0.01427873  0.81982235  0.19444107    -0.08160
C524        C  0.01426113  0.81121465  0.16284405     0.06510
C525        C  0.01422280  0.83436369  0.13955976    -0.07580
H526        H  0.01420111  0.89922994  0.18657000     0.12100
H527        H  0.01430198  0.80182299  0.21243914     0.09630
H528        H  0.01420197  0.82769905  0.11503369     0.09480
O529        O  0.46267943  0.92469433  0.00021291    -0.76740
O530        O  0.46268497  0.60384084  0.99981123    -0.78300
O531        O  0.42467678  0.51407238  0.05157990    -0.75320
O532        O  0.42467611  0.51447201  0.44843397    -0.73700
O533        O  0.46267569  0.51446794  0.41043498    -0.75490
O534        O  0.46267487  0.51406792  0.08958096    -0.76430
O535        O  0.42468326  0.56584293  0.99980870    -0.77750
O536        O  0.42468025  0.96269400  0.00021018    -0.78040
Eu537      Eu  0.45051922  0.51426716  0.00000779     2.39200
O538        O  0.48241861  0.54610144  0.46817302    -0.85550
O539        O  0.48241409  0.98242760  0.03184414    -0.89150
C540        C  0.43387593  0.93389036  0.00024983     1.05540
C541        C  0.43388044  0.59464662  0.99977203     1.05350
C542        C  0.43387111  0.51403406  0.08038426     1.05300
C543        C  0.43387114  0.51450984  0.41962960     1.03160
H544        H  0.46936028  0.55915950  0.04490337     0.32910
O545        O  0.48242056  0.54609797  0.03184260    -0.97940
H546        H  0.46935771  0.96936939  0.45511680     0.32940
O547        O  0.48241910  0.98243017  0.46817777    -1.00480
O548        O  0.06583076  0.60383892  0.00021212    -0.77710
O549        O  0.06582963  0.92469186  0.99981234    -0.77240
O550        O  0.01445356  0.56583365  0.08958436    -0.75680
O551        O  0.01405368  0.56583526  0.41043832    -0.79020
O552        O  0.01445229  0.96268507  0.41043798    -0.76880
O553        O  0.01405073  0.96268806  0.08958572    -0.75520
O554        O  0.10382234  0.51447065  0.05158294    -0.77050
O555        O  0.10382489  0.51406879  0.44843316    -0.78970
O556        O  0.06582247  0.51446796  0.08958222    -0.75710
O557        O  0.06582408  0.51406649  0.41043470    -0.78380
O558        O  0.01445810  0.60383406  0.05158599    -0.74120
O559        O  0.01405447  0.92468906  0.05158570    -0.74150
O560        O  0.01445481  0.92468687  0.44843847    -0.73800
O561        O  0.01405701  0.60383572  0.44843745    -0.77290
O562        O  0.10382907  0.56583916  0.00021030    -0.76720
O563        O  0.10382877  0.96269235  0.99981033    -0.75040
Eu564      Eu  0.01425612  0.57799739  0.00001093     2.39770
Eu565      Eu  0.01425399  0.95053030  0.00001118     2.39570
Eu566      Eu  0.01425003  0.51426192  0.06374299     2.38400
Eu567      Eu  0.01425111  0.51426165  0.43627593     2.39880
Eu568      Eu  0.07798655  0.51426497  0.00000859     2.39790
O569        O  0.04608882  0.98242730  0.46817331    -0.89460
O570        O  0.04608879  0.54609815  0.03184683    -0.88350
C571        C  0.09463484  0.59464358  0.00024929     1.05710
C572        C  0.09463389  0.93388788  0.99977358     1.04430
C573        C  0.01449464  0.59463756  0.08038951     1.03820
C574        C  0.01401810  0.59463923  0.41963375     1.05830
C575        C  0.01449210  0.93388102  0.41963399     1.04750
C576        C  0.01401516  0.93388369  0.08039027     1.03600
C577        C  0.09462612  0.51450907  0.08038644     1.03650
C578        C  0.09462849  0.51403129  0.41962920     1.06270
H579        H  0.05914733  0.96937145  0.04490463     0.33640
O580        O  0.04608642  0.98243176  0.03184334    -1.01620
H581        H  0.05914646  0.55915702  0.45511558     0.35690
O582        O  0.04608541  0.54609594  0.46817624    -1.04180
C583        C  0.01412058  0.89006416  0.12420514    -0.09890
C584        C  0.01404550  0.91006898  0.10420361    -0.11450
C585        C  0.01426924  0.75013412  0.15526284    -0.09890
C586        C  0.01426677  0.77837611  0.15525999    -0.11450
C587        C  0.01439894  0.63845102  0.12420645    -0.09890
C588        C  0.01446872  0.61844941  0.10420309    -0.11450
C589        C  0.01426615  0.85900154  0.23589021    -0.09890
C590        C  0.01426862  0.85900181  0.26413241    -0.11450
C591        C  0.01446599  0.91006611  0.39582101    -0.09890
C592        C  0.01439656  0.89006202  0.37581868    -0.11450
C593        C  0.01426742  0.66950329  0.26413172    -0.09890
C594        C  0.01426974  0.66950438  0.23589002    -0.11450
C595        C  0.01426680  0.75013364  0.34475805    -0.09890
C596        C  0.01426914  0.77837556  0.34476031    -0.11450
C597        C  0.01404881  0.61845100  0.39582037    -0.09890
C598        C  0.01412369  0.63845169  0.37581634    -0.11450
C599        C  0.39005238  0.51414289  0.12419720    -0.09890
C600        C  0.41005667  0.51406708  0.10419613    -0.11450
C601        C  0.27836703  0.51428551  0.15525037    -0.09890
C602        C  0.25012527  0.51428776  0.15525167    -0.11450
C603        C  0.13844163  0.51441641  0.12420011    -0.09890
C604        C  0.11843848  0.51448516  0.10419873    -0.11450
C605        C  0.16949808  0.51428765  0.23588149    -0.09890
C606        C  0.16949534  0.51428535  0.26412326    -0.11450
C607        C  0.11844070  0.51406402  0.39581455    -0.09890
C608        C  0.13844161  0.51414019  0.37580974    -0.11450
C609        C  0.35899601  0.51428847  0.26412289    -0.09890
C610        C  0.35899351  0.51428596  0.23588077    -0.11450
C611        C  0.27836788  0.51428836  0.34474909    -0.09890
C612        C  0.25012570  0.51428580  0.34474823    -0.11450
C613        C  0.39005439  0.51441797  0.37581086    -0.09890
C614        C  0.41005708  0.51448641  0.39581499    -0.11450
C615        C  0.13845225  0.89007329  0.99987143    -0.09890
C616        C  0.11844821  0.91007506  0.99980135    -0.11450
C617        C  0.16951282  0.77838833  0.49999818    -0.09890
C618        C  0.16951335  0.75014618  0.50000051    -0.11450
C619        C  0.11844953  0.61845718  0.00022033    -0.09890
C620        C  0.13845349  0.63845988  0.00014597    -0.11450
C621        C  0.27838254  0.66952025  0.49999831    -0.09890
C622        C  0.25014045  0.66951875  0.50000063    -0.11450
C623        C  0.41006876  0.61846094  0.99979967    -0.09890
C624        C  0.39006705  0.63846436  0.99987005    -0.11450
C625        C  0.27838047  0.85901598  0.50000119    -0.09890
C626        C  0.25013862  0.85901840  0.49999871    -0.11450
C627        C  0.35901169  0.75014840  0.49999886    -0.09890
C628        C  0.35901049  0.77839013  0.50000134    -0.11450
C629        C  0.39006221  0.89007422  0.00014674    -0.09890
C630        C  0.41006355  0.91007770  0.00022110    -0.11450
C631        C  0.36618020  0.86619021  0.50006932     0.06520
C632        C  0.37470883  0.83437641  0.50004516    -0.09630
C633        C  0.35142474  0.81122759  0.00000687     0.04020
C634        C  0.31982762  0.81983490  0.99998909    -0.08160
C635        C  0.31121841  0.85143147  0.00000679     0.06510
C636        C  0.33436590  0.87471679  0.50004507    -0.07580
H637        H  0.39923498  0.82771243  0.50006611     0.12100
H638        H  0.30182925  0.80183549  0.99996592     0.09630
H639        H  0.32770046  0.89924252  0.50006596     0.09480
C640        C  0.36618386  0.66234791  0.49994087     0.06520
C641        C  0.37471173  0.69416248  0.49996209    -0.09630
C642        C  0.35142717  0.71731036  0.99999425     0.04020
C643        C  0.31983022  0.70870173  0.00000867    -0.08160
C644        C  0.31122110  0.67710497  0.99999398     0.06510
C645        C  0.33436908  0.65382037  0.49996181    -0.07580
H646        H  0.39923772  0.70082782  0.49994405     0.12100
H647        H  0.30183174  0.72670047  0.00002769     0.09630
H648        H  0.32770365  0.62929444  0.49994355     0.09480
C649        C  0.16233823  0.66234401  0.50006855     0.06520
C650        C  0.19415317  0.65381700  0.00004440    -0.09630
C651        C  0.21730186  0.67710213  0.00000613     0.04020
C652        C  0.20869355  0.70869884  0.99998833    -0.08160
C653        C  0.17709696  0.71730748  0.00000606     0.06510
C654        C  0.15381169  0.69415899  0.00004433    -0.07580
H655        H  0.20081814  0.62929120  0.50006537     0.12100
H656        H  0.22669258  0.72669768  0.99996517     0.09630
H657        H  0.12928592  0.70082425  0.50006524     0.09480
C658        C  0.16233698  0.86619023  0.49994163     0.06520
C659        C  0.19415175  0.87471854  0.49996256    -0.09630
C660        C  0.21730032  0.85143422  0.99999422     0.04020
C661        C  0.20869232  0.81983725  0.00000837    -0.08160
C662        C  0.17709589  0.81122736  0.99999396     0.06510
C663        C  0.15381050  0.83437492  0.49996229    -0.07580
H664        H  0.20081671  0.89924460  0.49994476     0.12100
H665        H  0.22669148  0.80183914  0.00002704     0.09630
H666        H  0.12928479  0.82770872  0.49994428     0.09480
C667        C  0.36617038  0.51434750  0.85192563     0.06520
C668        C  0.33435504  0.51432602  0.86045186    -0.09630
C669        C  0.31120690  0.51429315  0.83716634     0.04020
C670        C  0.31981608  0.51427826  0.80556990    -0.08160
C671        C  0.35141283  0.51429324  0.79696171     0.06510
C672        C  0.37469775  0.51432612  0.82011055    -0.07580
H673        H  0.32768923  0.51434426  0.88497751     0.12100
H674        H  0.30181751  0.51425869  0.78757079     0.09630
H675        H  0.39922362  0.51434444  0.81344554     0.09480
C676        C  0.16232411  0.51421814  0.85192462     0.06520
C677        C  0.19413931  0.51424227  0.86045068    -0.09630
C678        C  0.21728678  0.51428025  0.83716512     0.04020
C679        C  0.20867679  0.51429775  0.80556881    -0.08160
C680        C  0.17707972  0.51428006  0.79696132     0.06510
C681        C  0.15379550  0.51424210  0.82011014    -0.07580
H682        H  0.20080551  0.51422141  0.88497630     0.12100
H683        H  0.22667484  0.51432068  0.78756940     0.09630
H684        H  0.12926937  0.51422110  0.81344564     0.09480
C685        C  0.16232526  0.51434597  0.64808205     0.06520
C686        C  0.15379821  0.51432467  0.67989627    -0.09630
C687        C  0.17708320  0.51429213  0.70304374     0.04020
C688        C  0.20867993  0.51427738  0.69443463    -0.08160
C689        C  0.21728770  0.51429221  0.66283751     0.06510
C690        C  0.19413916  0.51432476  0.63955343    -0.07580
H691        H  0.12927237  0.51434285  0.68656167     0.12100
H692        H  0.22667909  0.51425808  0.71243303     0.09630
H693        H  0.20080342  0.51434302  0.61502729     0.09480
C694        C  0.36616787  0.51421995  0.64807969     0.06520
C695        C  0.37469442  0.51424360  0.67989457    -0.09630
C696        C  0.35140922  0.51428059  0.70304219     0.04020
C697        C  0.31981267  0.51429754  0.69443253    -0.08160
C698        C  0.31120493  0.51428040  0.66283540     0.06510
C699        C  0.33435353  0.51424343  0.63955119    -0.07580
H700        H  0.39922015  0.51422318  0.68656042     0.12100
H701        H  0.30181342  0.51431978  0.71243072     0.09630
H702        H  0.32768896  0.51422286  0.61502509     0.09480
C703        C  0.01420069  0.66233351  0.85193211     0.06520
C704        C  0.01422469  0.65380458  0.82011800    -0.09630
C705        C  0.01426201  0.67708857  0.79696945     0.04020
C706        C  0.01427904  0.70868571  0.80557712    -0.08160
C707        C  0.01426159  0.71729541  0.83717365     0.06510
C708        C  0.01422419  0.69414816  0.86045881    -0.07580
H709        H  0.01420429  0.62927839  0.81345361     0.12100
H710        H  0.01430154  0.72668384  0.78757789     0.09630
H711        H  0.01420342  0.70081409  0.88498456     0.09480
C712        C  0.01432633  0.86617737  0.85193473     0.06520
C713        C  0.01430551  0.83436251  0.86046200    -0.09630
C714        C  0.01427355  0.81121401  0.83717697     0.04020
C715        C  0.01425900  0.81982222  0.80558025    -0.08160
C716        C  0.01427325  0.85141870  0.79697129     0.06510
C717        C  0.01430518  0.87470398  0.82011962    -0.07580
H718        H  0.01432361  0.82769742  0.88498784     0.12100
H719        H  0.01424014  0.80182315  0.78758160     0.09630
H720        H  0.01432302  0.89922971  0.81345418     0.09480
C721        C  0.01432802  0.66233366  0.64809005     0.06520
C722        C  0.01430687  0.65380555  0.67990409    -0.09570
C723        C  0.01427416  0.67708993  0.70305246     0.04020
C724        C  0.01425912  0.70868701  0.69444459    -0.08160
C725        C  0.01427385  0.71729599  0.66284785     0.06510
C726        C  0.01430654  0.69414805  0.63956295    -0.07580
H727        H  0.01432535  0.62927950  0.68656863     0.12100
H728        H  0.01423969  0.72668552  0.71244371     0.09630
H729        H  0.01432476  0.70081322  0.61503710     0.09480
C730        C  0.01419833  0.86617853  0.64808810     0.06520
C731        C  0.01422230  0.87470436  0.67990357    -0.09630
C732        C  0.01426069  0.85141868  0.70305108     0.04020
C733        C  0.01427872  0.81982234  0.69444106    -0.08160
C734        C  0.01426112  0.81121463  0.66284404     0.06510
C735        C  0.01422280  0.83436367  0.63955975    -0.07580
H736        H  0.01420110  0.89922993  0.68656997     0.12100
H737        H  0.01430196  0.80182299  0.71243914     0.09630
H738        H  0.01420198  0.82769903  0.61503368     0.09480
O739        O  0.46267942  0.92469433  0.50021292    -0.76740
O740        O  0.46268495  0.60384084  0.49981123    -0.78300
O741        O  0.42467678  0.51407239  0.55157990    -0.75320
O742        O  0.42467612  0.51447200  0.94843397    -0.73700
O743        O  0.46267570  0.51446794  0.91043498    -0.75490
O744        O  0.46267487  0.51406791  0.58958096    -0.76430
O745        O  0.42468324  0.56584293  0.49980870    -0.77750
O746        O  0.42468025  0.96269399  0.50021019    -0.78040
Eu747      Eu  0.45051921  0.51426716  0.50000780     2.39200
O748        O  0.48241862  0.54610144  0.96817302    -0.85550
O749        O  0.48241410  0.98242759  0.53184415    -0.89150
C750        C  0.43387593  0.93389036  0.50024984     1.05540
C751        C  0.43388043  0.59464662  0.49977204     1.05350
C752        C  0.43387111  0.51403406  0.58038427     1.05300
C753        C  0.43387115  0.51450983  0.91962960     1.03160
H754        H  0.46936027  0.55915949  0.54490337     0.32910
O755        O  0.48242055  0.54609797  0.53184261    -0.97940
H756        H  0.46935771  0.96936939  0.95511679     0.32940
O757        O  0.48241910  0.98243018  0.96817777    -1.00480
O758        O  0.06583074  0.60383892  0.50021213    -0.77710
O759        O  0.06582963  0.92469187  0.49981234    -0.77240
O760        O  0.01445354  0.56583363  0.58958437    -0.75680
O761        O  0.01405367  0.56583528  0.91043832    -0.79020
O762        O  0.01445229  0.96268507  0.91043798    -0.76880
O763        O  0.01405073  0.96268805  0.58958571    -0.75520
O764        O  0.10382233  0.51447064  0.55158295    -0.77050
O765        O  0.10382490  0.51406880  0.94843315    -0.78970
O766        O  0.06582246  0.51446794  0.58958223    -0.75710
O767        O  0.06582409  0.51406650  0.91043469    -0.78380
O768        O  0.01445809  0.60383404  0.55158599    -0.74120
O769        O  0.01405447  0.92468905  0.55158569    -0.74150
O770        O  0.01445482  0.92468687  0.94843847    -0.73800
O771        O  0.01405701  0.60383574  0.94843745    -0.77290
O772        O  0.10382906  0.56583915  0.50021031    -0.76720
O773        O  0.10382876  0.96269235  0.49981034    -0.75040
Eu774      Eu  0.01425612  0.57799738  0.50001093     2.39770
Eu775      Eu  0.01425399  0.95053030  0.50001118     2.39570
Eu776      Eu  0.01425002  0.51426191  0.56374299     2.38400
Eu777      Eu  0.01425111  0.51426166  0.93627593     2.39880
Eu778      Eu  0.07798654  0.51426497  0.50000859     2.39790
O779        O  0.04608881  0.98242730  0.96817331    -0.89460
O780        O  0.04608878  0.54609814  0.53184683    -0.88350
C781        C  0.09463483  0.59464358  0.50024931     1.05710
C782        C  0.09463389  0.93388789  0.49977358     1.04430
C783        C  0.01449463  0.59463754  0.58038952     1.03820
C784        C  0.01401809  0.59463924  0.91963375     1.05830
C785        C  0.01449211  0.93388102  0.91963399     1.04750
C786        C  0.01401516  0.93388368  0.58039026     1.03600
C787        C  0.09462611  0.51450906  0.58038645     1.03650
C788        C  0.09462849  0.51403130  0.91962919     1.06270
H789        H  0.05914733  0.96937146  0.54490463     0.33640
O790        O  0.04608642  0.98243176  0.53184334    -1.01620
H791        H  0.05914647  0.55915702  0.95511558     0.35690
O792        O  0.04608542  0.54609595  0.96817623    -1.04180
C793        C  0.01412058  0.89006414  0.62420512    -0.09890
C794        C  0.01404551  0.91006896  0.60420359    -0.11450
C795        C  0.01426923  0.75013410  0.65526284    -0.09890
C796        C  0.01426676  0.77837610  0.65525999    -0.11450
C797        C  0.01439892  0.63845101  0.62420645    -0.09890
C798        C  0.01446870  0.61844939  0.60420309    -0.11450
C799        C  0.01426613  0.85900154  0.73589019    -0.09890
C800        C  0.01426861  0.85900182  0.76413239    -0.11450
C801        C  0.01446600  0.91006611  0.89582101    -0.09890
C802        C  0.01439657  0.89006203  0.87581868    -0.11450
C803        C  0.01426744  0.66950329  0.76413172    -0.09890
C804        C  0.01426976  0.66950437  0.73589002    -0.11450
C805        C  0.01426682  0.75013366  0.84475803    -0.09890
C806        C  0.01426915  0.77837557  0.84476030    -0.11450
C807        C  0.01404880  0.61845102  0.89582038    -0.09890
C808        C  0.01412369  0.63845171  0.87581635    -0.11450
C809        C  0.39005238  0.51414290  0.62419721    -0.09890
C810        C  0.41005667  0.51406709  0.60419613    -0.11450
C811        C  0.27836703  0.51428552  0.65525037    -0.09890
C812        C  0.25012527  0.51428776  0.65525166    -0.11450
C813        C  0.13844162  0.51441639  0.62420011    -0.09890
C814        C  0.11843847  0.51448514  0.60419873    -0.11450
C815        C  0.16949809  0.51428763  0.73588149    -0.09890
C816        C  0.16949535  0.51428534  0.76412326    -0.11450
C817        C  0.11844070  0.51406402  0.89581454    -0.09890
C818        C  0.13844162  0.51414019  0.87580973    -0.11450
C819        C  0.35899602  0.51428850  0.76412289    -0.09890
C820        C  0.35899351  0.51428599  0.73588077    -0.11450
C821        C  0.27836789  0.51428837  0.84474910    -0.09890
C822        C  0.25012571  0.51428581  0.84474823    -0.11450
C823        C  0.39005440  0.51441797  0.87581086    -0.09890
C824        C  0.41005709  0.51448640  0.89581499    -0.11450
C825        C  0.13845224  0.89007330  0.49987142    -0.09890
C826        C  0.11844821  0.91007507  0.49980135    -0.11450
C827        C  0.16951286  0.77838833  0.99999822    -0.09890
C828        C  0.16951339  0.75014617  0.00000054    -0.11450
C829        C  0.11844951  0.61845718  0.50022036    -0.09890
C830        C  0.13845347  0.63845988  0.50014599    -0.11450
C831        C  0.27838257  0.66952025  0.99999832    -0.09890
C832        C  0.25014049  0.66951874  0.00000066    -0.11450
C833        C  0.41006874  0.61846093  0.49979968    -0.09890
C834        C  0.39006702  0.63846435  0.49987006    -0.11450
C835        C  0.27838049  0.85901598  0.00000118    -0.09890
C836        C  0.25013864  0.85901840  0.99999871    -0.11450
C837        C  0.35901172  0.75014840  0.99999884    -0.09890
C838        C  0.35901052  0.77839013  0.00000132    -0.11450
C839        C  0.39006220  0.89007421  0.50014677    -0.09890
C840        C  0.41006355  0.91007769  0.50022112    -0.11450
C841        C  0.86618022  0.36619022  0.00006929     0.06520
C842        C  0.87470884  0.33437642  0.00004513    -0.09630
C843        C  0.85142473  0.31122760  0.50000689     0.04020
C844        C  0.81982761  0.31983492  0.49998910    -0.08160
C845        C  0.81121840  0.35143149  0.50000680     0.06510
C846        C  0.83436591  0.37471680  0.00004505    -0.07580
H847        H  0.89923499  0.32771244  0.00006608     0.12100
H848        H  0.80182923  0.30183550  0.49996592     0.09630
H849        H  0.82770047  0.39924253  0.00006594     0.09480
C850        C  0.86618388  0.16234791  0.99994087     0.06520
C851        C  0.87471176  0.19416249  0.99996208    -0.09630
C852        C  0.85142715  0.21731036  0.49999426     0.04020
C853        C  0.81983021  0.20870173  0.50000867    -0.08160
C854        C  0.81122108  0.17710497  0.49999398     0.06510
C855        C  0.83436910  0.15382037  0.99996181    -0.07580
H856        H  0.89923775  0.20082782  0.99994404     0.12100
H857        H  0.80183172  0.22670047  0.50002769     0.09630
H858        H  0.82770367  0.12929444  0.99994356     0.09480
C859        C  0.66233825  0.16234401  0.00006856     0.06520
C860        C  0.69415315  0.15381702  0.50004439    -0.09630
C861        C  0.71730184  0.17710215  0.50000610     0.04020
C862        C  0.70869353  0.20869886  0.49998829    -0.08160
C863        C  0.67709694  0.21730750  0.50000602     0.06510
C864        C  0.65381167  0.19415901  0.50004432    -0.07580
H865        H  0.70081816  0.12929120  0.00006536     0.12100
H866        H  0.72669256  0.22669770  0.49996511     0.09630
H867        H  0.62928595  0.20082426  0.00006525     0.09480
C868        C  0.66233699  0.36619024  0.99994164     0.06520
C869        C  0.69415176  0.37471855  0.99996257    -0.09630
C870        C  0.71730031  0.35143424  0.49999421     0.04020
C871        C  0.70869231  0.31983727  0.50000835    -0.08160
C872        C  0.67709589  0.31122738  0.49999393     0.06510
C873        C  0.65381051  0.33437493  0.99996231    -0.07580
H874        H  0.70081672  0.39924461  0.99994476     0.12100
H875        H  0.72669147  0.30183917  0.50002702     0.09630
H876        H  0.62928481  0.32770873  0.99994430     0.09480
C877        C  0.86617039  0.01434747  0.35192563     0.06520
C878        C  0.83435504  0.01432598  0.36045186    -0.09630
C879        C  0.81120691  0.01429312  0.33716634     0.04020
C880        C  0.81981609  0.01427825  0.30556990    -0.08160
C881        C  0.85141283  0.01429323  0.29696170     0.06510
C882        C  0.87469775  0.01432611  0.32011054    -0.07580
H883        H  0.82768924  0.01434421  0.38497750     0.12100
H884        H  0.80181751  0.01425869  0.28757079     0.09630
H885        H  0.89922363  0.01434443  0.31344553     0.09480
C886        C  0.66232412  0.01421813  0.35192463     0.06520
C887        C  0.69413931  0.01424225  0.36045069    -0.09630
C888        C  0.71728678  0.01428023  0.33716512     0.04020
C889        C  0.70867679  0.01429772  0.30556881    -0.08160
C890        C  0.67707972  0.01428005  0.29696132     0.06510
C891        C  0.65379550  0.01424210  0.32011015    -0.07580
H892        H  0.70080552  0.01422139  0.38497630     0.12100
H893        H  0.72667484  0.01432065  0.28756940     0.09630
H894        H  0.62926937  0.01422110  0.31344565     0.09480
C895        C  0.66232526  0.01434594  0.14808206     0.06520
C896        C  0.65379821  0.01432465  0.17989627    -0.09630
C897        C  0.67708320  0.01429213  0.20304374     0.04020
C898        C  0.70867993  0.01427740  0.19443463    -0.08160
C899        C  0.71728770  0.01429223  0.16283752     0.06510
C900        C  0.69413916  0.01432476  0.13955344    -0.07580
H901        H  0.62927237  0.01434281  0.18656168     0.12100
H902        H  0.72667909  0.01425812  0.21243304     0.09630
H903        H  0.70080342  0.01434301  0.11502730     0.09480
C904        C  0.86616787  0.01421997  0.14807968     0.06520
C905        C  0.87469442  0.01424362  0.17989456    -0.09630
C906        C  0.85140922  0.01428063  0.20304219     0.04020
C907        C  0.81981267  0.01429758  0.19443253    -0.08160
C908        C  0.81120493  0.01428044  0.16283540     0.06510
C909        C  0.83435353  0.01424345  0.13955119    -0.07580
H910        H  0.89922016  0.01422319  0.18656041     0.12100
H911        H  0.80181342  0.01431982  0.21243072     0.09630
H912        H  0.82768896  0.01422288  0.11502508     0.09480
C913        C  0.51420069  0.16233349  0.35193211     0.06520
C914        C  0.51422469  0.15380457  0.32011799    -0.09630
C915        C  0.51426201  0.17708856  0.29696944     0.04020
C916        C  0.51427904  0.20868570  0.30557712    -0.08160
C917        C  0.51426158  0.21729539  0.33717366     0.06510
C918        C  0.51422419  0.19414813  0.36045881    -0.07580
H919        H  0.51420429  0.12927838  0.31345359     0.12100
H920        H  0.51430154  0.22668383  0.28757790     0.09630
H921        H  0.51420342  0.20081405  0.38498456     0.09480
C922        C  0.51432633  0.36617736  0.35193474     0.06520
C923        C  0.51430551  0.33436250  0.36046201    -0.09630
C924        C  0.51427355  0.31121400  0.33717699     0.04020
C925        C  0.51425900  0.31982220  0.30558027    -0.08160
C926        C  0.51427325  0.35141867  0.29697131     0.06510
C927        C  0.51430517  0.37470396  0.32011964    -0.07580
H928        H  0.51432360  0.32769741  0.38498786     0.12100
H929        H  0.51424014  0.30182313  0.28758162     0.09630
H930        H  0.51432302  0.39922969  0.31345419     0.09480
C931        C  0.51432802  0.16233368  0.14809004     0.06520
C932        C  0.51430687  0.15380556  0.17990408    -0.09570
C933        C  0.51427415  0.17708994  0.20305245     0.04020
C934        C  0.51425911  0.20868702  0.19444458    -0.08160
C935        C  0.51427385  0.21729601  0.16284785     0.06510
C936        C  0.51430654  0.19414807  0.13956294    -0.07580
H937        H  0.51432535  0.12927951  0.18656862     0.12100
H938        H  0.51423969  0.22668553  0.21244371     0.09630
H939        H  0.51432476  0.20081324  0.11503710     0.09480
C940        C  0.51419834  0.36617855  0.14808812     0.06520
C941        C  0.51422231  0.37470437  0.17990358    -0.09630
C942        C  0.51426070  0.35141868  0.20305109     0.04020
C943        C  0.51427872  0.31982235  0.19444107    -0.08160
C944        C  0.51426113  0.31121465  0.16284404     0.06510
C945        C  0.51422281  0.33436369  0.13955975    -0.07580
H946        H  0.51420112  0.39922994  0.18657000     0.12100
H947        H  0.51430196  0.30182300  0.21243914     0.09630
H948        H  0.51420199  0.32769905  0.11503369     0.09480
O949        O  0.96267942  0.42469435  0.00021291    -0.76740
O950        O  0.96268496  0.10384082  0.99981123    -0.78300
O951        O  0.92467678  0.01407237  0.05157990    -0.75320
O952        O  0.92467612  0.01447197  0.44843396    -0.73700
O953        O  0.96267570  0.01446792  0.41043498    -0.75490
O954        O  0.96267487  0.01406791  0.08958096    -0.76430
O955        O  0.92468325  0.06584292  0.99980870    -0.77750
O956        O  0.92468025  0.46269401  0.00021018    -0.78040
Eu957      Eu  0.95051922  0.01426715  0.00000779     2.39200
O958        O  0.98241861  0.04610142  0.46817302    -0.85550
O959        O  0.98241410  0.48242761  0.03184414    -0.89150
C960        C  0.93387593  0.43389038  0.00024983     1.05540
C961        C  0.93388043  0.09464660  0.99977203     1.05350
C962        C  0.93387111  0.01403406  0.08038426     1.05300
C963        C  0.93387115  0.01450980  0.41962960     1.03160
H964        H  0.96936027  0.05915948  0.04490337     0.32910
O965        O  0.98242056  0.04609796  0.03184260    -0.97940
H966        H  0.96935770  0.46936940  0.45511679     0.32940
O967        O  0.98241910  0.48243018  0.46817777    -1.00480
O968        O  0.56583076  0.10383891  0.00021212    -0.77710
O969        O  0.56582963  0.42469188  0.99981234    -0.77240
O970        O  0.51445355  0.06583364  0.08958436    -0.75680
O971        O  0.51405367  0.06583525  0.41043832    -0.79020
O972        O  0.51445228  0.46268508  0.41043797    -0.76880
O973        O  0.51405074  0.46268807  0.08958572    -0.75520
O974        O  0.60382234  0.01447061  0.05158294    -0.77050
O975        O  0.60382490  0.01406879  0.44843316    -0.78970
O976        O  0.56582247  0.01446792  0.08958223    -0.75710
O977        O  0.56582409  0.01406647  0.41043470    -0.78380
O978        O  0.51445810  0.10383405  0.05158598    -0.74120
O979        O  0.51405448  0.42468907  0.05158569    -0.74150
O980        O  0.51445481  0.42468688  0.44843847    -0.73800
O981        O  0.51405701  0.10383571  0.44843745    -0.77290
O982        O  0.60382908  0.06583915  0.00021030    -0.76720
O983        O  0.60382877  0.46269236  0.99981034    -0.75040
Eu984      Eu  0.51425613  0.07799738  0.00001093     2.39770
Eu985      Eu  0.51425399  0.45053031  0.00001118     2.39570
Eu986      Eu  0.51425003  0.01426191  0.06374299     2.38400
Eu987      Eu  0.51425111  0.01426164  0.43627593     2.39880
Eu988      Eu  0.57798655  0.01426496  0.00000859     2.39790
O989        O  0.54608881  0.48242731  0.46817330    -0.89460
O990        O  0.54608879  0.04609813  0.03184683    -0.88350
C991        C  0.59463484  0.09464357  0.00024930     1.05710
C992        C  0.59463390  0.43388790  0.99977358     1.04430
C993        C  0.51449464  0.09463755  0.08038951     1.03820
C994        C  0.51401809  0.09463922  0.41963375     1.05830
C995        C  0.51449210  0.43388103  0.41963399     1.04750
C996        C  0.51401517  0.43388370  0.08039027     1.03600
C997        C  0.59462612  0.01450903  0.08038645     1.03650
C998        C  0.59462850  0.01403128  0.41962920     1.06270
H999        H  0.55914733  0.46937147  0.04490463     0.33640
O1000       O  0.54608643  0.48243178  0.03184334    -1.01620
H1001       H  0.55914647  0.05915701  0.45511558     0.35690
O1002       O  0.54608542  0.04609593  0.46817624    -1.04180
C1003       C  0.51412060  0.39006417  0.12420514    -0.09890
C1004       C  0.51404552  0.41006898  0.10420361    -0.11450
C1005       C  0.51426923  0.25013412  0.15526284    -0.09890
C1006       C  0.51426677  0.27837611  0.15525999    -0.11450
C1007       C  0.51439893  0.13845102  0.12420644    -0.09890
C1008       C  0.51446870  0.11844940  0.10420308    -0.11450
C1009       C  0.51426614  0.35900154  0.23589021    -0.09890
C1010       C  0.51426862  0.35900180  0.26413241    -0.11450
C1011       C  0.51446599  0.41006611  0.39582101    -0.09890
C1012       C  0.51439656  0.39006202  0.37581869    -0.11450
C1013       C  0.51426744  0.16950329  0.26413171    -0.09890
C1014       C  0.51426976  0.16950438  0.23589001    -0.11450
C1015       C  0.51426681  0.25013363  0.34475805    -0.09890
C1016       C  0.51426915  0.27837555  0.34476031    -0.11450
C1017       C  0.51404880  0.11845099  0.39582037    -0.09890
C1018       C  0.51412369  0.13845168  0.37581634    -0.11450
C1019       C  0.89005238  0.01414291  0.12419720    -0.09890
C1020       C  0.91005668  0.01406709  0.10419613    -0.11450
C1021       C  0.77836703  0.01428555  0.15525037    -0.09890
C1022       C  0.75012527  0.01428779  0.15525166    -0.11450
C1023       C  0.63844163  0.01441635  0.12420011    -0.09890
C1024       C  0.61843848  0.01448510  0.10419873    -0.11450
C1025       C  0.66949809  0.01428763  0.23588149    -0.09890
C1026       C  0.66949535  0.01428533  0.26412326    -0.11450
C1027       C  0.61844071  0.01406401  0.39581455    -0.09890
C1028       C  0.63844162  0.01414018  0.37580974    -0.11450
C1029       C  0.85899602  0.01428851  0.26412289    -0.09890
C1030       C  0.85899351  0.01428601  0.23588077    -0.11450
C1031       C  0.77836789  0.01428833  0.34474909    -0.09890
C1032       C  0.75012572  0.01428577  0.34474824    -0.11450
C1033       C  0.89005441  0.01441794  0.37581085    -0.09890
C1034       C  0.91005710  0.01448637  0.39581499    -0.11450
C1035       C  0.63845225  0.39007331  0.99987143    -0.09890
C1036       C  0.61844822  0.41007508  0.99980135    -0.11450
C1037       C  0.66951285  0.27838835  0.49999818    -0.09890
C1038       C  0.66951337  0.25014619  0.50000051    -0.11450
C1039       C  0.61844953  0.11845717  0.00022034    -0.09890
C1040       C  0.63845349  0.13845988  0.00014598    -0.11450
C1041       C  0.77838255  0.16952026  0.49999831    -0.09890
C1042       C  0.75014047  0.16951876  0.50000063    -0.11450
C1043       C  0.91006875  0.11846092  0.99979967    -0.09890
C1044       C  0.89006704  0.13846435  0.99987006    -0.11450
C1045       C  0.77838048  0.35901600  0.50000119    -0.09890
C1046       C  0.75013864  0.35901843  0.49999871    -0.11450
C1047       C  0.85901171  0.25014840  0.49999886    -0.09890
C1048       C  0.85901050  0.27839014  0.50000134    -0.11450
C1049       C  0.89006221  0.39007422  0.00014674    -0.09890
C1050       C  0.91006355  0.41007771  0.00022110    -0.11450
C1051       C  0.86618021  0.36619022  0.50006932     0.06520
C1052       C  0.87470883  0.33437642  0.50004516    -0.09630
C1053       C  0.85142474  0.31122759  0.00000687     0.04020
C1054       C  0.81982761  0.31983491  0.99998909    -0.08160
C1055       C  0.81121840  0.35143148  0.00000679     0.06510
C1056       C  0.83436591  0.37471680  0.50004507    -0.07580
H1057       H  0.89923499  0.32771244  0.50006611     0.12100
H1058       H  0.80182924  0.30183550  0.99996591     0.09630
H1059       H  0.82770047  0.39924254  0.50006596     0.09480
C1060       C  0.86618387  0.16234791  0.49994086     0.06520
C1061       C  0.87471175  0.19416249  0.49996209    -0.09630
C1062       C  0.85142716  0.21731036  0.99999425     0.04020
C1063       C  0.81983021  0.20870173  0.00000867    -0.08160
C1064       C  0.81122109  0.17710497  0.99999398     0.06510
C1065       C  0.83436909  0.15382037  0.49996180    -0.07580
H1066       H  0.89923774  0.20082783  0.49994405     0.12100
H1067       H  0.80183173  0.22670047  0.00002769     0.09630
H1068       H  0.82770366  0.12929445  0.49994354     0.09480
C1069       C  0.66233824  0.16234402  0.50006855     0.06520
C1070       C  0.69415316  0.15381700  0.00004440    -0.09630
C1071       C  0.71730185  0.17710214  0.00000613     0.04020
C1072       C  0.70869354  0.20869885  0.99998833    -0.08160
C1073       C  0.67709694  0.21730749  0.00000606     0.06510
C1074       C  0.65381168  0.19415900  0.00004433    -0.07580
H1075       H  0.70081815  0.12929121  0.50006537     0.12100
H1076       H  0.72669257  0.22669769  0.99996517     0.09630
H1077       H  0.62928594  0.20082427  0.50006524     0.09480
C1078       C  0.66233699  0.36619025  0.49994162     0.06520
C1079       C  0.69415176  0.37471856  0.49996256    -0.09630
C1080       C  0.71730032  0.35143423  0.99999422     0.04020
C1081       C  0.70869231  0.31983726  0.00000837    -0.08160
C1082       C  0.67709589  0.31122737  0.99999396     0.06510
C1083       C  0.65381051  0.33437494  0.49996229    -0.07580
H1084       H  0.70081672  0.39924462  0.49994476     0.12100
H1085       H  0.72669147  0.30183916  0.00002704     0.09630
H1086       H  0.62928481  0.32770874  0.49994428     0.09480
C1087       C  0.86617038  0.01434750  0.85192563     0.06520
C1088       C  0.83435504  0.01432602  0.86045186    -0.09630
C1089       C  0.81120690  0.01429316  0.83716634     0.04020
C1090       C  0.81981608  0.01427827  0.80556990    -0.08160
C1091       C  0.85141282  0.01429324  0.79696171     0.06510
C1092       C  0.87469774  0.01432612  0.82011055    -0.07580
H1093       H  0.82768923  0.01434426  0.88497751     0.12100
H1094       H  0.80181751  0.01425870  0.78757080     0.09630
H1095       H  0.89922362  0.01434444  0.81344554     0.09480
C1096       C  0.66232411  0.01421814  0.85192462     0.06520
C1097       C  0.69413930  0.01424227  0.86045068    -0.09630
C1098       C  0.71728677  0.01428025  0.83716512     0.04020
C1099       C  0.70867679  0.01429774  0.80556881    -0.08160
C1100       C  0.67707972  0.01428006  0.79696132     0.06510
C1101       C  0.65379550  0.01424210  0.82011014    -0.07580
H1102       H  0.70080550  0.01422141  0.88497630     0.12100
H1103       H  0.72667484  0.01432067  0.78756940     0.09630
H1104       H  0.62926937  0.01422111  0.81344564     0.09480
C1105       C  0.66232527  0.01434596  0.64808205     0.06520
C1106       C  0.65379822  0.01432466  0.67989626    -0.09630
C1107       C  0.67708321  0.01429214  0.70304373     0.04020
C1108       C  0.70867994  0.01427740  0.69443463    -0.08160
C1109       C  0.71728770  0.01429221  0.66283751     0.06510
C1110       C  0.69413917  0.01432476  0.63955343    -0.07580
H1111       H  0.62927238  0.01434284  0.68656167     0.12100
H1112       H  0.72667910  0.01425810  0.71243303     0.09630
H1113       H  0.70080343  0.01434301  0.61502729     0.09480
C1114       C  0.86616788  0.01421991  0.64807969     0.06520
C1115       C  0.87469442  0.01424357  0.67989457    -0.09630
C1116       C  0.85140923  0.01428058  0.70304219     0.04020
C1117       C  0.81981267  0.01429753  0.69443253    -0.08160
C1118       C  0.81120493  0.01428038  0.66283540     0.06510
C1119       C  0.83435354  0.01424339  0.63955120    -0.07580
H1120       H  0.89922016  0.01422314  0.68656042     0.12100
H1121       H  0.80181342  0.01431979  0.71243072     0.09630
H1122       H  0.82768897  0.01422281  0.61502509     0.09480
C1123       C  0.51420070  0.16233350  0.85193211     0.06520
C1124       C  0.51422472  0.15380458  0.82011799    -0.09630
C1125       C  0.51426202  0.17708857  0.79696944     0.04020
C1126       C  0.51427903  0.20868571  0.80557712    -0.08160
C1127       C  0.51426157  0.21729540  0.83717365     0.06510
C1128       C  0.51422419  0.19414815  0.86045881    -0.07580
H1129       H  0.51420433  0.12927839  0.81345360     0.12100
H1130       H  0.51430152  0.22668384  0.78757790     0.09630
H1131       H  0.51420341  0.20081407  0.88498456     0.09480
C1132       C  0.51432632  0.36617737  0.85193474     0.06520
C1133       C  0.51430549  0.33436251  0.86046201    -0.09630
C1134       C  0.51427353  0.31121401  0.83717698     0.04020
C1135       C  0.51425898  0.31982221  0.80558026    -0.08160
C1136       C  0.51427324  0.35141869  0.79697130     0.06510
C1137       C  0.51430517  0.37470398  0.82011963    -0.07580
H1138       H  0.51432358  0.32769742  0.88498786     0.12100
H1139       H  0.51424012  0.30182314  0.78758161     0.09630
H1140       H  0.51432303  0.39922970  0.81345418     0.09480
C1141       C  0.51432805  0.16233368  0.64809005     0.06520
C1142       C  0.51430690  0.15380556  0.67990408    -0.09570
C1143       C  0.51427418  0.17708994  0.70305245     0.04020
C1144       C  0.51425914  0.20868702  0.69444458    -0.08160
C1145       C  0.51427387  0.21729601  0.66284784     0.06510
C1146       C  0.51430656  0.19414806  0.63956294    -0.07580
H1147       H  0.51432538  0.12927951  0.68656863     0.12100
H1148       H  0.51423971  0.22668553  0.71244370     0.09630
H1149       H  0.51432479  0.20081324  0.61503709     0.09480
C1150       C  0.51419834  0.36617855  0.64808811     0.06520
C1151       C  0.51422231  0.37470437  0.67990357    -0.09630
C1152       C  0.51426071  0.35141868  0.70305109     0.04020
C1153       C  0.51427874  0.31982235  0.69444106    -0.08160
C1154       C  0.51426114  0.31121465  0.66284404     0.06510
C1155       C  0.51422282  0.33436369  0.63955975    -0.07580
H1156       H  0.51420112  0.39922994  0.68656998     0.12100
H1157       H  0.51430198  0.30182300  0.71243913     0.09630
H1158       H  0.51420199  0.32769904  0.61503368     0.09480
O1159       O  0.96267942  0.42469435  0.50021292    -0.76740
O1160       O  0.96268495  0.10384082  0.49981123    -0.78300
O1161       O  0.92467678  0.01407235  0.55157990    -0.75320
O1162       O  0.92467612  0.01447199  0.94843397    -0.73700
O1163       O  0.96267570  0.01446793  0.91043498    -0.75490
O1164       O  0.96267486  0.01406789  0.58958096    -0.76430
O1165       O  0.92468324  0.06584292  0.49980870    -0.77750
O1166       O  0.92468024  0.46269401  0.50021018    -0.78040
Eu1167     Eu  0.95051921  0.01426715  0.50000779     2.39200
O1168       O  0.98241861  0.04610143  0.96817302    -0.85550
O1169       O  0.98241409  0.48242760  0.53184414    -0.89150
C1170       C  0.93387593  0.43389037  0.50024984     1.05540
C1171       C  0.93388043  0.09464661  0.49977203     1.05350
C1172       C  0.93387110  0.01403403  0.58038426     1.05300
C1173       C  0.93387115  0.01450982  0.91962960     1.03160
H1174       H  0.96936027  0.05915948  0.54490337     0.32910
O1175       O  0.98242055  0.04609796  0.53184260    -0.97940
H1176       H  0.96935771  0.46936941  0.95511679     0.32940
O1177       O  0.98241910  0.48243019  0.96817777    -1.00480
O1178       O  0.56583075  0.10383891  0.50021213    -0.77710
O1179       O  0.56582963  0.42469188  0.49981233    -0.77240
O1180       O  0.51445356  0.06583364  0.58958436    -0.75680
O1181       O  0.51405368  0.06583526  0.91043831    -0.79020
O1182       O  0.51445228  0.46268508  0.91043798    -0.76880
O1183       O  0.51405074  0.46268806  0.58958571    -0.75520
O1184       O  0.60382235  0.01447062  0.55158294    -0.77050
O1185       O  0.60382490  0.01406879  0.94843315    -0.78970
O1186       O  0.56582247  0.01446793  0.58958222    -0.75710
O1187       O  0.56582408  0.01406648  0.91043469    -0.78380
O1188       O  0.51445810  0.10383404  0.55158599    -0.74120
O1189       O  0.51405448  0.42468906  0.55158568    -0.74150
O1190       O  0.51445482  0.42468689  0.94843847    -0.73800
O1191       O  0.51405702  0.10383572  0.94843744    -0.77290
O1192       O  0.60382907  0.06583915  0.50021031    -0.76720
O1193       O  0.60382877  0.46269237  0.49981034    -0.75040
Eu1194     Eu  0.51425612  0.07799738  0.50001093     2.39770
Eu1195     Eu  0.51425399  0.45053031  0.50001117     2.39570
Eu1196     Eu  0.51425004  0.01426190  0.56374299     2.38400
Eu1197     Eu  0.51425111  0.01426165  0.93627593     2.39880
Eu1198     Eu  0.57798655  0.01426496  0.50000859     2.39790
O1199       O  0.54608881  0.48242731  0.96817331    -0.89460
O1200       O  0.54608879  0.04609813  0.53184683    -0.88350
C1201       C  0.59463483  0.09464358  0.50024931     1.05710
C1202       C  0.59463389  0.43388791  0.49977358     1.04430
C1203       C  0.51449465  0.09463754  0.58038951     1.03820
C1204       C  0.51401811  0.09463923  0.91963375     1.05830
C1205       C  0.51449211  0.43388103  0.91963399     1.04750
C1206       C  0.51401517  0.43388369  0.58039026     1.03600
C1207       C  0.59462613  0.01450904  0.58038645     1.03650
C1208       C  0.59462849  0.01403128  0.91962919     1.06270
H1209       H  0.55914733  0.46937146  0.54490462     0.33640
O1210       O  0.54608642  0.48243177  0.53184334    -1.01620
H1211       H  0.55914647  0.05915700  0.95511558     0.35690
O1212       O  0.54608542  0.04609593  0.96817623    -1.04180
C1213       C  0.51412060  0.39006416  0.62420513    -0.09890
C1214       C  0.51404552  0.41006897  0.60420359    -0.11450
C1215       C  0.51426925  0.25013411  0.65526283    -0.09890
C1216       C  0.51426678  0.27837611  0.65525999    -0.11450
C1217       C  0.51439895  0.13845102  0.62420644    -0.09890
C1218       C  0.51446873  0.11844940  0.60420309    -0.11450
C1219       C  0.51426615  0.35900154  0.73589020    -0.09890
C1220       C  0.51426862  0.35900182  0.76413240    -0.11450
C1221       C  0.51446599  0.41006612  0.89582101    -0.09890
C1222       C  0.51439656  0.39006203  0.87581868    -0.11450
C1223       C  0.51426746  0.16950329  0.76413171    -0.09890
C1224       C  0.51426978  0.16950438  0.73589001    -0.11450
C1225       C  0.51426679  0.25013365  0.84475805    -0.09890
C1226       C  0.51426912  0.27837556  0.84476031    -0.11450
C1227       C  0.51404882  0.11845100  0.89582037    -0.09890
C1228       C  0.51412371  0.13845169  0.87581634    -0.11450
C1229       C  0.89005239  0.01414285  0.62419721    -0.09890
C1230       C  0.91005667  0.01406704  0.60419613    -0.11450
C1231       C  0.77836704  0.01428551  0.65525037    -0.09890
C1232       C  0.75012528  0.01428775  0.65525166    -0.11450
C1233       C  0.63844164  0.01441637  0.62420010    -0.09890
C1234       C  0.61843849  0.01448512  0.60419873    -0.11450
C1235       C  0.66949810  0.01428764  0.73588149    -0.09890
C1236       C  0.66949536  0.01428534  0.76412325    -0.11450
C1237       C  0.61844070  0.01406401  0.89581454    -0.09890
C1238       C  0.63844161  0.01414018  0.87580973    -0.11450
C1239       C  0.85899602  0.01428850  0.76412289    -0.09890
C1240       C  0.85899351  0.01428598  0.73588078    -0.11450
C1241       C  0.77836789  0.01428837  0.84474910    -0.09890
C1242       C  0.75012571  0.01428580  0.84474824    -0.11450
C1243       C  0.89005440  0.01441797  0.87581086    -0.09890
C1244       C  0.91005709  0.01448640  0.89581499    -0.11450
C1245       C  0.63845225  0.39007332  0.49987142    -0.09890
C1246       C  0.61844821  0.41007509  0.49980135    -0.11450
C1247       C  0.66951285  0.27838834  0.99999822    -0.09890
C1248       C  0.66951338  0.25014618  0.00000054    -0.11450
C1249       C  0.61844952  0.11845718  0.50022035    -0.09890
C1250       C  0.63845347  0.13845989  0.50014598    -0.11450
C1251       C  0.77838256  0.16952026  0.99999832    -0.09890
C1252       C  0.75014048  0.16951875  0.00000066    -0.11450
C1253       C  0.91006875  0.11846093  0.49979967    -0.09890
C1254       C  0.89006703  0.13846435  0.49987005    -0.11450
C1255       C  0.77838049  0.35901599  0.00000118    -0.09890
C1256       C  0.75013864  0.35901842  0.99999871    -0.11450
C1257       C  0.85901171  0.25014840  0.99999884    -0.09890
C1258       C  0.85901051  0.27839013  0.00000132    -0.11450
C1259       C  0.89006221  0.39007422  0.50014677    -0.09890
C1260       C  0.91006355  0.41007771  0.50022111    -0.11450
C1261       C  0.86618022  0.86619022  0.00006929     0.06520
C1262       C  0.87470884  0.83437641  0.00004513    -0.09630
C1263       C  0.85142473  0.81122759  0.50000689     0.04020
C1264       C  0.81982761  0.81983490  0.49998910    -0.08160
C1265       C  0.81121840  0.85143147  0.50000680     0.06510
C1266       C  0.83436591  0.87471679  0.00004505    -0.07580
H1267       H  0.89923499  0.82771243  0.00006608     0.12100
H1268       H  0.80182923  0.80183549  0.49996592     0.09630
H1269       H  0.82770047  0.89924252  0.00006594     0.09480
C1270       C  0.86618388  0.66234792  0.99994086     0.06520
C1271       C  0.87471175  0.69416249  0.99996208    -0.09630
C1272       C  0.85142715  0.71731035  0.49999426     0.04020
C1273       C  0.81983020  0.70870173  0.50000867    -0.08160
C1274       C  0.81122107  0.67710497  0.49999398     0.06510
C1275       C  0.83436910  0.65382037  0.99996181    -0.07580
H1276       H  0.89923774  0.70082783  0.99994404     0.12100
H1277       H  0.80183172  0.72670047  0.50002769     0.09630
H1278       H  0.82770367  0.62929444  0.99994356     0.09480
C1279       C  0.66233825  0.66234401  0.00006856     0.06520
C1280       C  0.69415315  0.65381700  0.50004439    -0.09630
C1281       C  0.71730183  0.67710214  0.50000610     0.04020
C1282       C  0.70869353  0.70869884  0.49998829    -0.08160
C1283       C  0.67709693  0.71730748  0.50000602     0.06510
C1284       C  0.65381167  0.69415899  0.50004432    -0.07580
H1285       H  0.70081816  0.62929120  0.00006536     0.12100
H1286       H  0.72669256  0.72669769  0.49996511     0.09630
H1287       H  0.62928595  0.70082425  0.00006525     0.09480
C1288       C  0.66233699  0.86619023  0.99994164     0.06520
C1289       C  0.69415176  0.87471854  0.99996257    -0.09630
C1290       C  0.71730031  0.85143422  0.49999421     0.04020
C1291       C  0.70869230  0.81983725  0.50000835    -0.08160
C1292       C  0.67709588  0.81122736  0.49999393     0.06510
C1293       C  0.65381051  0.83437492  0.99996231    -0.07580
H1294       H  0.70081672  0.89924460  0.99994476     0.12100
H1295       H  0.72669146  0.80183914  0.50002702     0.09630
H1296       H  0.62928481  0.82770872  0.99994430     0.09480
C1297       C  0.86617037  0.51434749  0.35192563     0.06520
C1298       C  0.83435503  0.51432601  0.36045186    -0.09630
C1299       C  0.81120689  0.51429314  0.33716634     0.04020
C1300       C  0.81981607  0.51427824  0.30556990    -0.08160
C1301       C  0.85141281  0.51429321  0.29696171     0.06510
C1302       C  0.87469773  0.51432611  0.32011054    -0.07580
H1303       H  0.82768922  0.51434426  0.38497751     0.12100
H1304       H  0.80181749  0.51425867  0.28757080     0.09630
H1305       H  0.89922361  0.51434443  0.31344553     0.09480
C1306       C  0.66232410  0.51421815  0.35192463     0.06520
C1307       C  0.69413929  0.51424227  0.36045069    -0.09630
C1308       C  0.71728677  0.51428025  0.33716512     0.04020
C1309       C  0.70867678  0.51429775  0.30556882    -0.08160
C1310       C  0.67707971  0.51428007  0.29696132     0.06510
C1311       C  0.65379549  0.51424211  0.32011014    -0.07580
H1312       H  0.70080550  0.51422141  0.38497630     0.12100
H1313       H  0.72667483  0.51432068  0.28756940     0.09630
H1314       H  0.62926936  0.51422112  0.31344564     0.09480
C1315       C  0.66232526  0.51434599  0.14808206     0.06520
C1316       C  0.65379821  0.51432469  0.17989627    -0.09630
C1317       C  0.67708320  0.51429215  0.20304374     0.04020
C1318       C  0.70867993  0.51427740  0.19443463    -0.08160
C1319       C  0.71728770  0.51429223  0.16283752     0.06510
C1320       C  0.69413916  0.51432478  0.13955344    -0.07580
H1321       H  0.62927237  0.51434287  0.18656167     0.12100
H1322       H  0.72667909  0.51425810  0.21243304     0.09630
H1323       H  0.70080342  0.51434304  0.11502729     0.09480
C1324       C  0.86616787  0.51421993  0.14807969     0.06520
C1325       C  0.87469441  0.51424357  0.17989457    -0.09630
C1326       C  0.85140922  0.51428057  0.20304219     0.04020
C1327       C  0.81981266  0.51429752  0.19443253    -0.08160
C1328       C  0.81120492  0.51428039  0.16283539     0.06510
C1329       C  0.83435353  0.51424341  0.13955119    -0.07580
H1330       H  0.89922015  0.51422314  0.18656041     0.12100
H1331       H  0.80181341  0.51431976  0.21243071     0.09630
H1332       H  0.82768896  0.51422285  0.11502508     0.09480
C1333       C  0.51420070  0.66233350  0.35193211     0.06520
C1334       C  0.51422472  0.65380458  0.32011800    -0.09630
C1335       C  0.51426203  0.67708857  0.29696945     0.04020
C1336       C  0.51427904  0.70868571  0.30557712    -0.08160
C1337       C  0.51426158  0.71729540  0.33717366     0.06510
C1338       C  0.51422419  0.69414815  0.36045881    -0.07580
H1339       H  0.51420432  0.62927839  0.31345360     0.12100
H1340       H  0.51430153  0.72668384  0.28757790     0.09630
H1341       H  0.51420340  0.70081407  0.38498456     0.09480
C1342       C  0.51432631  0.86617736  0.35193474     0.06520
C1343       C  0.51430548  0.83436250  0.36046201    -0.09630
C1344       C  0.51427352  0.81121400  0.33717699     0.04020
C1345       C  0.51425897  0.81982220  0.30558027    -0.08160
C1346       C  0.51427323  0.85141868  0.29697131     0.06510
C1347       C  0.51430516  0.87470397  0.32011964    -0.07580
H1348       H  0.51432357  0.82769741  0.38498786     0.12100
H1349       H  0.51424011  0.80182314  0.28758161     0.09630
H1350       H  0.51432301  0.89922970  0.31345419     0.09480
C1351       C  0.51432805  0.66233368  0.14809005     0.06520
C1352       C  0.51430690  0.65380556  0.17990409    -0.09570
C1353       C  0.51427418  0.67708994  0.20305245     0.04020
C1354       C  0.51425914  0.70868702  0.19444459    -0.08160
C1355       C  0.51427388  0.71729601  0.16284785     0.06510
C1356       C  0.51430657  0.69414807  0.13956295    -0.07580
H1357       H  0.51432538  0.62927951  0.18656863     0.12100
H1358       H  0.51423972  0.72668553  0.21244371     0.09630
H1359       H  0.51432479  0.70081324  0.11503710     0.09480
C1360       C  0.51419834  0.86617855  0.14808812     0.06520
C1361       C  0.51422230  0.87470437  0.17990358    -0.09630
C1362       C  0.51426070  0.85141868  0.20305109     0.04020
C1363       C  0.51427874  0.81982235  0.19444107    -0.08160
C1364       C  0.51426114  0.81121465  0.16284405     0.06510
C1365       C  0.51422282  0.83436369  0.13955976    -0.07580
H1366       H  0.51420110  0.89922994  0.18657000     0.12100
H1367       H  0.51430198  0.80182300  0.21243914     0.09630
H1368       H  0.51420200  0.82769905  0.11503369     0.09480
O1369       O  0.96267943  0.92469433  0.00021291    -0.76740
O1370       O  0.96268496  0.60384084  0.99981123    -0.78300
O1371       O  0.92467678  0.51407238  0.05157990    -0.75320
O1372       O  0.92467612  0.51447200  0.44843396    -0.73700
O1373       O  0.96267570  0.51446794  0.41043498    -0.75490
O1374       O  0.96267486  0.51406792  0.08958096    -0.76430
O1375       O  0.92468325  0.56584293  0.99980869    -0.77750
O1376       O  0.92468025  0.96269400  0.00021018    -0.78040
Eu1377     Eu  0.95051921  0.51426716  0.00000779     2.39200
O1378       O  0.98241861  0.54610143  0.46817301    -0.85550
O1379       O  0.98241410  0.98242759  0.03184414    -0.89150
C1380       C  0.93387594  0.93389036  0.00024983     1.05540
C1381       C  0.93388044  0.59464662  0.99977203     1.05350
C1382       C  0.93387110  0.51403406  0.08038426     1.05300
C1383       C  0.93387115  0.51450983  0.41962959     1.03160
H1384       H  0.96936027  0.55915950  0.04490337     0.32910
O1385       O  0.98242055  0.54609797  0.03184260    -0.97940
H1386       H  0.96935771  0.96936939  0.45511679     0.32940
O1387       O  0.98241910  0.98243017  0.46817777    -1.00480
O1388       O  0.56583076  0.60383892  0.00021212    -0.77710
O1389       O  0.56582963  0.92469186  0.99981234    -0.77240
O1390       O  0.51445356  0.56583365  0.08958436    -0.75680
O1391       O  0.51405368  0.56583527  0.41043832    -0.79020
O1392       O  0.51445228  0.96268507  0.41043798    -0.76880
O1393       O  0.51405072  0.96268807  0.08958572    -0.75520
O1394       O  0.60382235  0.51447065  0.05158294    -0.77050
O1395       O  0.60382489  0.51406880  0.44843315    -0.78970
O1396       O  0.56582247  0.51446796  0.08958222    -0.75710
O1397       O  0.56582408  0.51406649  0.41043469    -0.78380
O1398       O  0.51445811  0.60383406  0.05158599    -0.74120
O1399       O  0.51405447  0.92468906  0.05158570    -0.74150
O1400       O  0.51445481  0.92468687  0.44843847    -0.73800
O1401       O  0.51405701  0.60383573  0.44843745    -0.77290
O1402       O  0.60382908  0.56583916  0.00021029    -0.76720
O1403       O  0.60382876  0.96269235  0.99981034    -0.75040
Eu1404     Eu  0.51425613  0.57799739  0.00001093     2.39770
Eu1405     Eu  0.51425398  0.95053030  0.00001118     2.39570
Eu1406     Eu  0.51425004  0.51426192  0.06374299     2.38400
Eu1407     Eu  0.51425110  0.51426166  0.43627593     2.39880
Eu1408     Eu  0.57798656  0.51426497  0.00000859     2.39790
O1409       O  0.54608881  0.98242729  0.46817331    -0.89460
O1410       O  0.54608880  0.54609814  0.03184683    -0.88350
C1411       C  0.59463484  0.59464358  0.00024929     1.05710
C1412       C  0.59463389  0.93388788  0.99977358     1.04430
C1413       C  0.51449465  0.59463756  0.08038951     1.03820
C1414       C  0.51401810  0.59463924  0.41963375     1.05830
C1415       C  0.51449210  0.93388102  0.41963399     1.04750
C1416       C  0.51401516  0.93388369  0.08039027     1.03600
C1417       C  0.59462612  0.51450907  0.08038644     1.03650
C1418       C  0.59462849  0.51403130  0.41962919     1.06270
H1419       H  0.55914732  0.96937146  0.04490463     0.33640
O1420       O  0.54608642  0.98243176  0.03184334    -1.01620
H1421       H  0.55914646  0.55915702  0.45511558     0.35690
O1422       O  0.54608541  0.54609594  0.46817623    -1.04180
C1423       C  0.51412059  0.89006416  0.12420514    -0.09890
C1424       C  0.51404551  0.91006898  0.10420361    -0.11450
C1425       C  0.51426926  0.75013412  0.15526284    -0.09890
C1426       C  0.51426679  0.77837611  0.15525999    -0.11450
C1427       C  0.51439895  0.63845102  0.12420645    -0.09890
C1428       C  0.51446873  0.61844941  0.10420309    -0.11450
C1429       C  0.51426614  0.85900154  0.23589020    -0.09890
C1430       C  0.51426861  0.85900181  0.26413241    -0.11450
C1431       C  0.51446598  0.91006611  0.39582101    -0.09890
C1432       C  0.51439655  0.89006202  0.37581868    -0.11450
C1433       C  0.51426746  0.66950329  0.26413172    -0.09890
C1434       C  0.51426979  0.66950438  0.23589001    -0.11450
C1435       C  0.51426679  0.75013364  0.34475805    -0.09890
C1436       C  0.51426912  0.77837556  0.34476031    -0.11450
C1437       C  0.51404881  0.61845101  0.39582037    -0.09890
C1438       C  0.51412371  0.63845170  0.37581634    -0.11450
C1439       C  0.89005238  0.51414289  0.12419720    -0.09890
C1440       C  0.91005667  0.51406708  0.10419613    -0.11450
C1441       C  0.77836703  0.51428551  0.15525037    -0.09890
C1442       C  0.75012527  0.51428776  0.15525166    -0.11450
C1443       C  0.63844163  0.51441641  0.12420011    -0.09890
C1444       C  0.61843849  0.51448516  0.10419873    -0.11450
C1445       C  0.66949809  0.51428765  0.23588149    -0.09890
C1446       C  0.66949535  0.51428535  0.26412326    -0.11450
C1447       C  0.61844069  0.51406402  0.39581454    -0.09890
C1448       C  0.63844161  0.51414019  0.37580973    -0.11450
C1449       C  0.85899600  0.51428847  0.26412289    -0.09890
C1450       C  0.85899350  0.51428596  0.23588077    -0.11450
C1451       C  0.77836788  0.51428836  0.34474910    -0.09890
C1452       C  0.75012570  0.51428580  0.34474824    -0.11450
C1453       C  0.89005439  0.51441797  0.37581085    -0.09890
C1454       C  0.91005709  0.51448641  0.39581498    -0.11450
C1455       C  0.63845224  0.89007329  0.99987143    -0.09890
C1456       C  0.61844821  0.91007507  0.99980135    -0.11450
C1457       C  0.66951284  0.77838833  0.49999818    -0.09890
C1458       C  0.66951336  0.75014618  0.50000051    -0.11450
C1459       C  0.61844953  0.61845718  0.00022033    -0.09890
C1460       C  0.63845349  0.63845988  0.00014597    -0.11450
C1461       C  0.77838255  0.66952025  0.49999831    -0.09890
C1462       C  0.75014047  0.66951875  0.50000063    -0.11450
C1463       C  0.91006875  0.61846094  0.99979967    -0.09890
C1464       C  0.89006704  0.63846435  0.99987005    -0.11450
C1465       C  0.77838048  0.85901598  0.50000119    -0.09890
C1466       C  0.75013863  0.85901840  0.49999871    -0.11450
C1467       C  0.85901170  0.75014840  0.49999886    -0.09890
C1468       C  0.85901050  0.77839013  0.50000134    -0.11450
C1469       C  0.89006221  0.89007421  0.00014675    -0.09890
C1470       C  0.91006356  0.91007770  0.00022110    -0.11450
C1471       C  0.86618021  0.86619021  0.50006932     0.06520
C1472       C  0.87470884  0.83437641  0.50004516    -0.09630
C1473       C  0.85142474  0.81122759  0.00000687     0.04020
C1474       C  0.81982761  0.81983490  0.99998909    -0.08160
C1475       C  0.81121840  0.85143147  0.00000679     0.06510
C1476       C  0.83436591  0.87471679  0.50004507    -0.07580
H1477       H  0.89923499  0.82771243  0.50006611     0.12100
H1478       H  0.80182924  0.80183549  0.99996591     0.09630
H1479       H  0.82770047  0.89924252  0.50006596     0.09480
C1480       C  0.86618387  0.66234791  0.49994086     0.06520
C1481       C  0.87471174  0.69416248  0.49996209    -0.09630
C1482       C  0.85142716  0.71731036  0.99999425     0.04020
C1483       C  0.81983021  0.70870173  0.00000867    -0.08160
C1484       C  0.81122108  0.67710497  0.99999398     0.06510
C1485       C  0.83436909  0.65382037  0.49996180    -0.07580
H1486       H  0.89923773  0.70082782  0.49994405     0.12100
H1487       H  0.80183172  0.72670047  0.00002769     0.09630
H1488       H  0.82770366  0.62929444  0.49994354     0.09480
C1489       C  0.66233824  0.66234401  0.50006855     0.06520
C1490       C  0.69415316  0.65381700  0.00004440    -0.09630
C1491       C  0.71730185  0.67710214  0.00000613     0.04020
C1492       C  0.70869354  0.70869884  0.99998833    -0.08160
C1493       C  0.67709695  0.71730748  0.00000606     0.06510
C1494       C  0.65381168  0.69415899  0.00004433    -0.07580
H1495       H  0.70081815  0.62929120  0.50006537     0.12100
H1496       H  0.72669257  0.72669769  0.99996517     0.09630
H1497       H  0.62928594  0.70082426  0.50006524     0.09480
C1498       C  0.66233699  0.86619023  0.49994163     0.06520
C1499       C  0.69415176  0.87471854  0.49996256    -0.09630
C1500       C  0.71730032  0.85143422  0.99999422     0.04020
C1501       C  0.70869231  0.81983725  0.00000837    -0.08160
C1502       C  0.67709589  0.81122736  0.99999396     0.06510
C1503       C  0.65381051  0.83437492  0.49996229    -0.07580
H1504       H  0.70081672  0.89924460  0.49994476     0.12100
H1505       H  0.72669147  0.80183914  0.00002704     0.09630
H1506       H  0.62928480  0.82770872  0.49994428     0.09480
C1507       C  0.86617038  0.51434750  0.85192563     0.06520
C1508       C  0.83435504  0.51432602  0.86045186    -0.09630
C1509       C  0.81120690  0.51429315  0.83716634     0.04020
C1510       C  0.81981608  0.51427826  0.80556990    -0.08160
C1511       C  0.85141282  0.51429324  0.79696171     0.06510
C1512       C  0.87469774  0.51432612  0.82011055    -0.07580
H1513       H  0.82768923  0.51434426  0.88497750     0.12100
H1514       H  0.80181751  0.51425870  0.78757079     0.09630
H1515       H  0.89922362  0.51434444  0.81344554     0.09480
C1516       C  0.66232411  0.51421814  0.85192462     0.06520
C1517       C  0.69413930  0.51424227  0.86045068    -0.09630
C1518       C  0.71728677  0.51428025  0.83716511     0.04020
C1519       C  0.70867678  0.51429775  0.80556881    -0.08160
C1520       C  0.67707972  0.51428006  0.79696131     0.06510
C1521       C  0.65379549  0.51424210  0.82011014    -0.07580
H1522       H  0.70080551  0.51422141  0.88497629     0.12100
H1523       H  0.72667484  0.51432068  0.78756939     0.09630
H1524       H  0.62926937  0.51422110  0.81344564     0.09480
C1525       C  0.66232526  0.51434597  0.64808205     0.06520
C1526       C  0.65379822  0.51432467  0.67989626    -0.09630
C1527       C  0.67708320  0.51429213  0.70304373     0.04020
C1528       C  0.70867993  0.51427738  0.69443463    -0.08160
C1529       C  0.71728770  0.51429221  0.66283751     0.06510
C1530       C  0.69413917  0.51432476  0.63955343    -0.07580
H1531       H  0.62927237  0.51434285  0.68656166     0.12100
H1532       H  0.72667909  0.51425808  0.71243304     0.09630
H1533       H  0.70080343  0.51434302  0.61502729     0.09480
C1534       C  0.86616787  0.51421995  0.64807969     0.06520
C1535       C  0.87469442  0.51424360  0.67989457    -0.09630
C1536       C  0.85140923  0.51428059  0.70304219     0.04020
C1537       C  0.81981267  0.51429754  0.69443253    -0.08160
C1538       C  0.81120493  0.51428040  0.66283540     0.06510
C1539       C  0.83435353  0.51424343  0.63955120    -0.07580
H1540       H  0.89922016  0.51422318  0.68656041     0.12100
H1541       H  0.80181343  0.51431978  0.71243072     0.09630
H1542       H  0.82768896  0.51422286  0.61502509     0.09480
C1543       C  0.51420067  0.66233351  0.85193212     0.06520
C1544       C  0.51422469  0.65380458  0.82011800    -0.09630
C1545       C  0.51426200  0.67708857  0.79696945     0.04020
C1546       C  0.51427902  0.70868571  0.80557712    -0.08160
C1547       C  0.51426155  0.71729541  0.83717365     0.06510
C1548       C  0.51422417  0.69414816  0.86045881    -0.07580
H1549       H  0.51420429  0.62927839  0.81345361     0.12100
H1550       H  0.51430151  0.72668384  0.78757789     0.09630
H1551       H  0.51420338  0.70081409  0.88498456     0.09480
C1552       C  0.51432631  0.86617737  0.85193473     0.06520
C1553       C  0.51430547  0.83436251  0.86046200    -0.09630
C1554       C  0.51427352  0.81121401  0.83717697     0.04020
C1555       C  0.51425898  0.81982222  0.80558025    -0.08160
C1556       C  0.51427325  0.85141870  0.79697129     0.06510
C1557       C  0.51430517  0.87470398  0.82011963    -0.07580
H1558       H  0.51432356  0.82769742  0.88498785     0.12100
H1559       H  0.51424012  0.80182315  0.78758160     0.09630
H1560       H  0.51432303  0.89922971  0.81345418     0.09480
C1561       C  0.51432804  0.66233366  0.64809006     0.06520
C1562       C  0.51430689  0.65380555  0.67990409    -0.09570
C1563       C  0.51427418  0.67708993  0.70305246     0.04020
C1564       C  0.51425914  0.70868701  0.69444459    -0.08160
C1565       C  0.51427389  0.71729599  0.66284785     0.06510
C1566       C  0.51430657  0.69414805  0.63956295    -0.07580
H1567       H  0.51432536  0.62927950  0.68656863     0.12100
H1568       H  0.51423972  0.72668552  0.71244371     0.09630
H1569       H  0.51432480  0.70081322  0.61503710     0.09480
C1570       C  0.51419837  0.86617853  0.64808811     0.06520
C1571       C  0.51422234  0.87470436  0.67990357    -0.09630
C1572       C  0.51426073  0.85141868  0.70305108     0.04020
C1573       C  0.51427876  0.81982234  0.69444106    -0.08160
C1574       C  0.51426117  0.81121463  0.66284404     0.06510
C1575       C  0.51422285  0.83436367  0.63955975    -0.07580
H1576       H  0.51420114  0.89922993  0.68656998     0.12100
H1577       H  0.51430201  0.80182299  0.71243914     0.09630
H1578       H  0.51420202  0.82769903  0.61503368     0.09480
O1579       O  0.96267943  0.92469433  0.50021292    -0.76740
O1580       O  0.96268495  0.60384084  0.49981123    -0.78300
O1581       O  0.92467677  0.51407239  0.55157989    -0.75320
O1582       O  0.92467612  0.51447200  0.94843396    -0.73700
O1583       O  0.96267570  0.51446794  0.91043498    -0.75490
O1584       O  0.96267485  0.51406791  0.58958095    -0.76430
O1585       O  0.92468324  0.56584293  0.49980869    -0.77750
O1586       O  0.92468025  0.96269399  0.50021019    -0.78040
Eu1587     Eu  0.95051921  0.51426716  0.50000779     2.39200
O1588       O  0.98241861  0.54610144  0.96817302    -0.85550
O1589       O  0.98241410  0.98242759  0.53184414    -0.89150
C1590       C  0.93387594  0.93389036  0.50024984     1.05540
C1591       C  0.93388043  0.59464662  0.49977203     1.05350
C1592       C  0.93387109  0.51403406  0.58038426     1.05300
C1593       C  0.93387115  0.51450983  0.91962960     1.03160
H1594       H  0.96936026  0.55915949  0.54490337     0.32910
O1595       O  0.98242054  0.54609796  0.53184260    -0.97940
H1596       H  0.96935771  0.96936939  0.95511679     0.32940
O1597       O  0.98241910  0.98243017  0.96817777    -1.00480
O1598       O  0.56583074  0.60383892  0.50021213    -0.77710
O1599       O  0.56582963  0.92469186  0.49981233    -0.77240
O1600       O  0.51445356  0.56583364  0.58958437    -0.75680
O1601       O  0.51405367  0.56583527  0.91043832    -0.79020
O1602       O  0.51445228  0.96268507  0.91043798    -0.76880
O1603       O  0.51405075  0.96268805  0.58958571    -0.75520
O1604       O  0.60382235  0.51447065  0.55158293    -0.77050
O1605       O  0.60382490  0.51406879  0.94843315    -0.78970
O1606       O  0.56582247  0.51446794  0.58958222    -0.75710
O1607       O  0.56582408  0.51406649  0.91043469    -0.78380
O1608       O  0.51445810  0.60383404  0.55158600    -0.74120
O1609       O  0.51405448  0.92468905  0.55158569    -0.74150
O1610       O  0.51445481  0.92468688  0.94843847    -0.73800
O1611       O  0.51405701  0.60383574  0.94843745    -0.77290
O1612       O  0.60382906  0.56583916  0.50021030    -0.76720
O1613       O  0.60382876  0.96269235  0.49981034    -0.75040
Eu1614     Eu  0.51425612  0.57799739  0.50001093     2.39770
Eu1615     Eu  0.51425398  0.95053030  0.50001118     2.39570
Eu1616     Eu  0.51425003  0.51426191  0.56374299     2.38400
Eu1617     Eu  0.51425111  0.51426166  0.93627593     2.39880
Eu1618     Eu  0.57798655  0.51426497  0.50000859     2.39790
O1619       O  0.54608881  0.98242730  0.96817331    -0.89460
O1620       O  0.54608879  0.54609814  0.53184683    -0.88350
C1621       C  0.59463483  0.59464358  0.50024931     1.05710
C1622       C  0.59463389  0.93388788  0.49977358     1.04430
C1623       C  0.51449464  0.59463754  0.58038952     1.03820
C1624       C  0.51401809  0.59463924  0.91963375     1.05830
C1625       C  0.51449210  0.93388102  0.91963399     1.04750
C1626       C  0.51401518  0.93388368  0.58039026     1.03600
C1627       C  0.59462612  0.51450906  0.58038644     1.03650
C1628       C  0.59462849  0.51403129  0.91962919     1.06270
H1629       H  0.55914733  0.96937145  0.54490463     0.33640
O1630       O  0.54608642  0.98243176  0.53184334    -1.01620
H1631       H  0.55914647  0.55915702  0.95511557     0.35690
O1632       O  0.54608543  0.54609595  0.96817623    -1.04180
C1633       C  0.51412062  0.89006414  0.62420512    -0.09890
C1634       C  0.51404554  0.91006896  0.60420360    -0.11450
C1635       C  0.51426927  0.75013410  0.65526284    -0.09890
C1636       C  0.51426681  0.77837610  0.65525999    -0.11450
C1637       C  0.51439895  0.63845101  0.62420645    -0.09890
C1638       C  0.51446872  0.61844939  0.60420310    -0.11450
C1639       C  0.51426617  0.85900154  0.73589019    -0.09890
C1640       C  0.51426863  0.85900182  0.76413239    -0.11450
C1641       C  0.51446598  0.91006611  0.89582101    -0.09890
C1642       C  0.51439655  0.89006203  0.87581868    -0.11450
C1643       C  0.51426744  0.66950329  0.76413172    -0.09890
C1644       C  0.51426977  0.66950437  0.73589002    -0.11450
C1645       C  0.51426677  0.75013365  0.84475803    -0.09890
C1646       C  0.51426911  0.77837557  0.84476030    -0.11450
C1647       C  0.51404879  0.61845102  0.89582038    -0.09890
C1648       C  0.51412368  0.63845171  0.87581635    -0.11450
C1649       C  0.89005238  0.51414290  0.62419720    -0.09890
C1650       C  0.91005666  0.51406709  0.60419612    -0.11450
C1651       C  0.77836703  0.51428552  0.65525038    -0.09890
C1652       C  0.75012527  0.51428776  0.65525166    -0.11450
C1653       C  0.63844164  0.51441639  0.62420010    -0.09890
C1654       C  0.61843849  0.51448514  0.60419872    -0.11450
C1655       C  0.66949809  0.51428763  0.73588148    -0.09890
C1656       C  0.66949535  0.51428534  0.76412325    -0.11450
C1657       C  0.61844070  0.51406402  0.89581454    -0.09890
C1658       C  0.63844161  0.51414018  0.87580973    -0.11450
C1659       C  0.85899602  0.51428850  0.76412289    -0.09890
C1660       C  0.85899351  0.51428599  0.73588077    -0.11450
C1661       C  0.77836789  0.51428837  0.84474909    -0.09890
C1662       C  0.75012571  0.51428581  0.84474823    -0.11450
C1663       C  0.89005440  0.51441797  0.87581086    -0.09890
C1664       C  0.91005709  0.51448640  0.89581499    -0.11450
C1665       C  0.63845224  0.89007330  0.49987142    -0.09890
C1666       C  0.61844821  0.91007507  0.49980135    -0.11450
C1667       C  0.66951285  0.77838833  0.99999822    -0.09890
C1668       C  0.66951338  0.75014617  0.00000054    -0.11450
C1669       C  0.61844952  0.61845718  0.50022035    -0.09890
C1670       C  0.63845347  0.63845988  0.50014598    -0.11450
C1671       C  0.77838256  0.66952026  0.99999832    -0.09890
C1672       C  0.75014048  0.66951875  0.00000066    -0.11450
C1673       C  0.91006875  0.61846093  0.49979967    -0.09890
C1674       C  0.89006703  0.63846435  0.49987006    -0.11450
C1675       C  0.77838049  0.85901598  0.00000118    -0.09890
C1676       C  0.75013864  0.85901841  0.99999871    -0.11450
C1677       C  0.85901171  0.75014840  0.99999884    -0.09890
C1678       C  0.85901051  0.77839013  0.00000132    -0.11450
C1679       C  0.89006221  0.89007421  0.50014677    -0.09890
C1680       C  0.91006356  0.91007769  0.50022112    -0.11450
loop_ 
_geom_bond_atom_site_label_1 
_geom_bond_atom_site_label_2 
_geom_bond_distance 
_geom_bond_site_symmetry_2 
_ccdc_geom_bond_type 
C1            C2   1.405       .  A
C1            C6   1.405       .  A
C1          C209   1.441       .  S
C2          C213   1.401       .  A
C2            H7   1.084       .  S
C3            C4   1.397       .  A
C3          C212   1.401       .  A
C3          C208   1.438       .  S
C4            C5   1.397       .  A
C4            H8   1.086       .  S
C5          C216   1.401       .  A
C5          C205   1.438       .  S
C6          C215   1.401       .  A
C6            H9   1.084       .  S
C10          C11   1.405       .  A
C10          C15   1.405       .  A
C10         C204   1.441       .  S
C11         C222   1.401       .  A
C11          H16   1.084       .  S
C12          C13   1.397       .  A
C12         C221   1.401       .  A
C12         C207   1.438       .  S
C13          C14   1.397       .  A
C13          H17   1.086       .  S
C14         C225   1.401       .  A
C14         C201   1.438       .  S
C15         C224   1.401       .  A
C15          H18   1.084       .  S
C19         C230   1.405       .  A
C19         C234   1.405       .  A
C19         C200   1.441       .  S
C20          C21   1.401       .  A
C20         C229   1.405       .  A
C20         H235   1.084       .  S
C21          C22   1.397       .  A
C21         C202   1.438       .  S
C22          C23   1.397       .  A
C22          H26   1.086       .  S
C23          C24   1.401       .  A
C23         C198   1.438       .  S
C24         C229   1.405       .  A
C24         H237   1.084       .  S
H25         C230   1.084       .  S
H27         C234   1.084       .  S
C28          C29   1.405       .  A
C28          C33   1.405       .  A
C28         C195   1.441       .  S
C29         C240   1.401       .  A
C29          H34   1.084       .  S
C30          C31   1.397       .  A
C30         C239   1.401       .  A
C30         C206   1.438       .  S
C31          C32   1.397       .  A
C31          H35   1.086       .  S
C32         C243   1.401       .  A
C32         C197   1.438       .  S
C33         C242   1.401       .  A
C33          H36   1.084       .  S
C37          C38   1.405       .  A
C37          C42   1.405       .  A
C37         C193   1.441       .  S
C38          C39   1.401       .  A
C38          H43   1.084       .  S
C39          C40   1.397       .  A
C39         C191   1.438       .  S
C40          C41   1.397       .  A
C40          H44   1.086       .  S
C41          C42   1.401       .  A
C41         C189   1.438       .  S
C42          H45   1.084       .  S
C46          C47   1.405       .  A
C46          C51   1.405       .  A
C46         C188   1.441       .  S
C47          C48   1.401       .  A
C47          H52   1.084       .  S
C48          C49   1.397       .  A
C48         C192   1.438       .  S
C49          C50   1.397       .  A
C49          H53   1.086       .  S
C50          C51   1.401       .  A
C50         C186   1.438       .  S
C51          H54   1.084       .  S
C55          C56   1.405       .  A
C55          C60   1.405       .  A
C55         C183   1.441       .  S
C56          C57   1.401       .  A
C56          H61   1.084       .  S
C57          C58   1.397       .  A
C57         C185   1.438       .  S
C58          C59   1.397       .  A
C58          H62   1.086       .  S
C59          C60   1.401       .  A
C59         C182   1.438       .  S
C60          H63   1.084       .  S
C64          C65   1.405       .  A
C64          C69   1.405       .  A
C64         C179   1.441       .  S
C65          C66   1.401       .  A
C65          H70   1.084       .  S
C66          C67   1.397       .  A
C66         C190   1.438       .  S
C67          C68   1.397       .  A
C67          H71   1.086       .  S
C68          C69   1.401       .  A
C68         C181   1.438       .  S
C69          H72   1.084       .  S
C73          C74   1.405       .  A
C73          C78   1.405       .  A
C73         C178   1.441       .  S
C74          C75   1.401       .  A
C74          H79   1.084       .  S
C75          C76   1.397       .  A
C75         C173   1.438       .  S
C76          C77   1.397       .  A
C76          H80   1.086       .  S
C77          C78   1.401       .  A
C77         C175   1.438       .  S
C78          H81   1.084       .  S
C82          C83   1.405       .  A
C82          C87   1.405       .  A
C82         C172   1.441       .  S
C83          C84   1.401       .  A
C83          H88   1.084       .  S
C84          C85   1.397       .  A
C84         C176   1.438       .  S
C85          C86   1.397       .  A
C85          H89   1.086       .  S
C86          C87   1.401       .  A
C86         C170   1.438       .  S
C87          H90   1.084       .  S
C91          C92   1.405       .  A
C91          C96   1.405       .  A
C91         C167   1.441       .  S
C92          C93   1.401       .  A
C92          H97   1.084       .  S
C93          C94   1.397       .  A
C93         C174   1.438       .  S
C94          C95   1.397       .  A
C94          H98   1.086       .  S
C95          C96   1.401       .  A
C95         C165   1.438       .  S
C96          H99   1.084       .  S
C100        C101   1.405       .  A
C100        C105   1.405       .  A
C100        C163   1.441       .  S
C101        C102   1.401       .  A
C101        H106   1.084       .  S
C102        C103   1.397       .  A
C102        C169   1.438       .  S
C103        C104   1.397       .  A
C103        H107   1.086       .  S
C104        C105   1.401       .  A
C104        C166   1.438       .  S
C105        H108   1.084       .  S
O109        C120   1.290       .  A
O109       Eu985   2.461       .  S
O110        C121   1.290       .  A
O110       Eu984   2.461   1_556  S
O111        C122   1.290       .  A
O111       Eu117   2.461       .  S
O112        C123   1.290       .  A
O112       Eu327   2.461       .  S
O113        C123   1.290       .  A
O113       Eu987   2.461       .  S
O114        C122   1.290       .  A
O114       Eu986   2.461       .  S
O115        C121   1.290       .  A
O115       Eu117   2.461   1_556  S
O116        C120   1.290       .  A
O116       Eu537   2.461       .  S
Eu117       O322   2.461   1_554  S
Eu117       O536   2.461   1_545  S
Eu117       O125   2.354       .  S
Eu117       O757   2.354   1_544  S
Eu117       O539   2.354   1_545  S
Eu117       O328   2.354   1_554  S
O118       Eu327   2.354       .  S
O118       Eu987   2.354       .  S
O118      Eu1194   2.354       .  S
O119       Eu537   2.354       .  S
O119       Eu985   2.354       .  S
O119      Eu1406   2.354       .  S
C120        C210   1.437       .  S
C121        C203   1.437       .  S
C122        C180   1.437       .  S
C123        C194   1.437       .  S
H124        O125   0.965       .  S
O125       Eu986   2.354       .  S
O125       Eu984   2.354       .  S
H126        O127   0.965       .  S
O127       Eu747   2.354       .  S
O127      Eu1195   2.354       .  S
O127      Eu1407   2.354       .  S
O128        C151   1.290       .  A
O128       Eu144   2.461       .  S
O129        C152   1.290       .  A
O129       Eu145   2.461   1_556  S
O130        C153   1.290       .  A
O130       Eu146   2.461       .  S
O131        C154   1.290       .  A
O131       Eu147   2.461       .  S
O132        C155   1.290       .  A
O132       Eu567   2.461       .  S
O133        C156   1.290       .  A
O133       Eu566   2.461       .  S
O134        C157   1.290       .  A
O134       Eu148   2.461       .  S
O135        C158   1.290       .  A
O135       Eu358   2.461       .  S
O136        C157   1.290       .  A
O136       Eu146   2.461       .  S
O137        C158   1.290       .  A
O137       Eu147   2.461       .  S
O138        C153   1.290       .  A
O138       Eu144   2.461       .  S
O139        C156   1.290       .  A
O139       Eu145   2.461       .  S
O140        C155   1.290       .  A
O140       Eu355   2.461       .  S
O141        C154   1.290       .  A
O141       Eu354   2.461       .  S
O142        C151   1.290       .  A
O142       Eu148   2.461       .  S
O143        C152   1.290       .  A
O143       Eu568   2.461   1_556  S
Eu144       O950   2.461   1_454  S
Eu144       O351   2.461   1_554  S
Eu144       O150   2.354       .  S
Eu144      O1168   2.354   1_454  S
Eu144       O965   2.354   1_455  S
Eu144       O372   2.354   1_554  S
Eu145       O949   2.461   1_455  S
Eu145       O350   2.461   1_554  S
Eu145       O160   2.354       .  S
Eu145       O959   2.354   1_455  S
Eu145      O1177   2.354   1_454  S
Eu145       O359   2.354   1_554  S
Eu146       O954   2.461   1_455  S
Eu146       O553   2.461   1_545  S
Eu146       O150   2.354       .  S
Eu146      O1379   2.354   1_445  S
Eu146       O965   2.354   1_455  S
Eu146       O580   2.354   1_545  S
Eu147       O953   2.461   1_455  S
Eu147       O552   2.461   1_545  S
Eu147       O162   2.354       .  S
Eu147       O958   2.354   1_455  S
Eu147      O1387   2.354   1_445  S
Eu147       O569   2.354   1_545  S
Eu148       O345   2.461   1_554  S
Eu148       O563   2.461   1_544  S
Eu148       O150   2.354       .  S
Eu148       O779   2.354   1_544  S
Eu148       O580   2.354   1_545  S
Eu148       O372   2.354   1_554  S
O149       Eu355   2.354       .  S
O149       Eu567   2.354       .  S
O149       Eu778   2.354       .  S
C151        C199   1.437       .  S
C152        C196   1.437       .  S
C153        C168   1.437       .  S
C154        C177   1.437       .  S
C155        C171   1.437       .  S
C156        C164   1.437       .  S
C157        C184   1.437       .  S
C158        C187   1.437       .  S
H159        O160   0.965       .  S
O160       Eu566   2.354       .  S
O160       Eu568   2.354       .  S
H161        O162   0.965       .  S
O162       Eu354   2.354       .  S
O162       Eu358   2.354       .  S
C163        C164   1.207       .  T
C165        C166   1.205       .  T
C167        C168   1.207       .  T
C169        C170   1.205       .  T
C171        C172   1.207       .  T
C173        C174   1.205       .  T
C175        C176   1.205       .  T
C177        C178   1.207       .  T
C179        C180   1.207       .  T
C181        C182   1.205       .  T
C183        C184   1.207       .  T
C185        C186   1.205       .  T
C187        C188   1.207       .  T
C189        C190   1.205       .  T
C191        C192   1.205       .  T
C193        C194   1.207       .  T
C195        C196   1.207       .  T
C197        C198   1.205       .  T
C199        C200   1.207       .  T
C201        C202   1.205       .  T
C203        C204   1.207       .  T
C205        C206   1.205       .  T
C207        C208   1.205       .  T
C209        C210   1.207       .  T
C211        C212   1.405       .  A
C211        C216   1.405       .  A
C211        C419   1.441       .  S
C212        H217   1.084       .  S
C213        C214   1.397   1_554  A
C213        C418   1.438       .  S
C214        C215   1.397   1_556  A
C214        H218   1.086       .  S
C215        C415   1.438       .  S
C216        H219   1.084       .  S
C220        C221   1.405       .  A
C220        C225   1.405       .  A
C220        C414   1.441       .  S
C221        H226   1.084       .  S
C222        C223   1.397   1_556  A
C222        C417   1.438       .  S
C223        C224   1.397   1_554  A
C223        H227   1.086       .  S
C224        C411   1.438       .  S
C225        H228   1.084       .  S
C229        C410   1.441       .  S
C230        C231   1.401       .  A
C231        C232   1.397   1_554  A
C231        C412   1.438       .  S
C232        C233   1.397   1_556  A
C232        H236   1.086       .  S
C233        C234   1.401       .  A
C233        C408   1.438       .  S
C238        C239   1.405       .  A
C238        C243   1.405       .  A
C238        C405   1.441       .  S
C239        H244   1.084       .  S
C240        C241   1.397   1_556  A
C240        C416   1.438       .  S
C241        C242   1.397   1_554  A
C241        H245   1.086       .  S
C242        C407   1.438       .  S
C243        H246   1.084       .  S
C247        C248   1.405       .  A
C247        C252   1.405       .  A
C247        C403   1.441       .  S
C248        C249   1.401       .  A
C248        H253   1.084       .  S
C249        C250   1.397       .  A
C249        C401   1.438       .  S
C250        C251   1.397       .  A
C250        H254   1.086       .  S
C251        C252   1.401       .  A
C251        C399   1.438       .  S
C252        H255   1.084       .  S
C256        C257   1.405       .  A
C256        C261   1.405       .  A
C256        C398   1.441       .  S
C257        C258   1.401       .  A
C257        H262   1.084       .  S
C258        C259   1.397       .  A
C258        C402   1.438       .  S
C259        C260   1.397       .  A
C259        H263   1.086       .  S
C260        C261   1.401       .  A
C260        C396   1.438       .  S
C261        H264   1.084       .  S
C265        C266   1.405       .  A
C265        C270   1.405       .  A
C265        C393   1.441       .  S
C266        C267   1.401       .  A
C266        H271   1.084       .  S
C267        C268   1.397       .  A
C267        C395   1.438       .  S
C268        C269   1.397       .  A
C268        H272   1.086       .  S
C269        C270   1.401       .  A
C269        C392   1.438       .  S
C270        H273   1.084       .  S
C274        C275   1.405       .  A
C274        C279   1.405       .  A
C274        C389   1.441       .  S
C275        C276   1.401       .  A
C275        H280   1.084       .  S
C276        C277   1.397       .  A
C276        C400   1.438       .  S
C277        C278   1.397       .  A
C277        H281   1.086       .  S
C278        C279   1.401       .  A
C278        C391   1.438       .  S
C279        H282   1.084       .  S
C283        C284   1.405       .  A
C283        C288   1.405       .  A
C283        C388   1.441       .  S
C284        C285   1.401       .  A
C284        H289   1.084       .  S
C285        C286   1.397       .  A
C285        C383   1.438       .  S
C286        C287   1.397       .  A
C286        H290   1.086       .  S
C287        C288   1.401       .  A
C287        C385   1.438       .  S
C288        H291   1.084       .  S
C292        C293   1.405       .  A
C292        C297   1.405       .  A
C292        C382   1.441       .  S
C293        C294   1.401       .  A
C293        H298   1.084       .  S
C294        C295   1.397       .  A
C294        C386   1.438       .  S
C295        C296   1.397       .  A
C295        H299   1.086       .  S
C296        C297   1.401       .  A
C296        C380   1.438       .  S
C297        H300   1.084       .  S
C301        C302   1.405       .  A
C301        C306   1.405       .  A
C301        C377   1.441       .  S
C302        C303   1.401       .  A
C302        H307   1.084       .  S
C303        C304   1.397       .  A
C303        C384   1.438       .  S
C304        C305   1.397       .  A
C304        H308   1.086       .  S
C305        C306   1.401       .  A
C305        C375   1.438       .  S
C306        H309   1.084       .  S
C310        C311   1.405       .  A
C310        C315   1.405       .  A
C310        C373   1.441       .  S
C311        C312   1.401       .  A
C311        H316   1.084       .  S
C312        C313   1.397       .  A
C312        C379   1.438       .  S
C313        C314   1.397       .  A
C313        H317   1.086       .  S
C314        C315   1.401       .  A
C314        C376   1.438       .  S
C315        H318   1.084       .  S
O319        C330   1.290       .  A
O319      Eu1195   2.461       .  S
O320        C331   1.290       .  A
O320      Eu1194   2.461       .  S
O321        C332   1.290       .  A
O321       Eu327   2.461       .  S
O322        C333   1.290       .  A
O323        C333   1.290       .  A
O323      Eu1197   2.461       .  S
O324        C332   1.290       .  A
O324      Eu1196   2.461       .  S
O325        C331   1.290       .  A
O325       Eu327   2.461       .  S
O326        C330   1.290       .  A
O326       Eu747   2.461       .  S
Eu327       O746   2.461   1_545  S
Eu327       O547   2.354   1_545  S
Eu327       O749   2.354   1_545  S
Eu327       O335   2.354       .  S
O328      Eu1197   2.354       .  S
O328       Eu984   2.354   1_556  S
O329       Eu747   2.354       .  S
O329      Eu1195   2.354       .  S
O329      Eu1616   2.354       .  S
C330        C420   1.437       .  S
C331        C413   1.437       .  S
C332        C390   1.437       .  S
C333        C404   1.437       .  S
H334        O335   0.965       .  S
O335      Eu1196   2.354       .  S
O335      Eu1194   2.354       .  S
H336        O337   0.965       .  S
O337       Eu537   2.354   1_556  S
O337       Eu985   2.354   1_556  S
O337      Eu1617   2.354       .  S
O338        C361   1.290       .  A
O338       Eu354   2.461       .  S
O339        C362   1.290       .  A
O339       Eu355   2.461       .  S
O340        C363   1.290       .  A
O340       Eu356   2.461       .  S
O341        C364   1.290       .  A
O341       Eu357   2.461       .  S
O342        C365   1.290       .  A
O342       Eu777   2.461       .  S
O343        C366   1.290       .  A
O343       Eu776   2.461       .  S
O344        C367   1.290       .  A
O344       Eu358   2.461       .  S
O345        C368   1.290       .  A
O346        C367   1.290       .  A
O346       Eu356   2.461       .  S
O347        C368   1.290       .  A
O347       Eu357   2.461       .  S
O348        C363   1.290       .  A
O348       Eu354   2.461       .  S
O349        C366   1.290       .  A
O349       Eu355   2.461       .  S
O350        C365   1.290       .  A
O351        C364   1.290       .  A
O352        C361   1.290       .  A
O352       Eu358   2.461       .  S
O353        C362   1.290       .  A
O353       Eu778   2.461       .  S
Eu354      O1160   2.461   1_455  S
Eu354       O958   2.354   1_455  S
Eu354      O1175   2.354   1_455  S
Eu354       O360   2.354       .  S
Eu355      O1159   2.461   1_455  S
Eu355      O1169   2.354   1_455  S
Eu355       O967   2.354   1_455  S
Eu355       O370   2.354       .  S
Eu356      O1164   2.461   1_455  S
Eu356       O763   2.461   1_545  S
Eu356      O1589   2.354   1_445  S
Eu356      O1175   2.354   1_455  S
Eu356       O790   2.354   1_545  S
Eu356       O360   2.354       .  S
Eu357      O1163   2.461   1_455  S
Eu357       O762   2.461   1_545  S
Eu357      O1168   2.354   1_455  S
Eu357      O1597   2.354   1_445  S
Eu357       O779   2.354   1_545  S
Eu357       O372   2.354       .  S
Eu358       O773   2.461   1_545  S
Eu358       O569   2.354   1_545  S
Eu358       O790   2.354   1_545  S
Eu358       O360   2.354       .  S
O359       Eu777   2.354       .  S
O359       Eu568   2.354   1_556  S
C361        C409   1.437       .  S
C362        C406   1.437       .  S
C363        C378   1.437       .  S
C364        C387   1.437       .  S
C365        C381   1.437       .  S
C366        C374   1.437       .  S
C367        C394   1.437       .  S
C368        C397   1.437       .  S
H369        O370   0.965       .  S
O370       Eu776   2.354       .  S
O370       Eu778   2.354       .  S
H371        O372   0.965       .  S
C373        C374   1.207       .  T
C375        C376   1.205       .  T
C377        C378   1.207       .  T
C379        C380   1.205       .  T
C381        C382   1.207       .  T
C383        C384   1.205       .  T
C385        C386   1.205       .  T
C387        C388   1.207       .  T
C389        C390   1.207       .  T
C391        C392   1.205       .  T
C393        C394   1.207       .  T
C395        C396   1.205       .  T
C397        C398   1.207       .  T
C399        C400   1.205       .  T
C401        C402   1.205       .  T
C403        C404   1.207       .  T
C405        C406   1.207       .  T
C407        C408   1.205   1_556  T
C409        C410   1.207       .  T
C411        C412   1.205   1_556  T
C413        C414   1.207       .  T
C415        C416   1.205   1_554  T
C417        C418   1.205   1_556  T
C419        C420   1.207       .  T
C421        C422   1.405       .  A
C421        C426   1.405       .  A
C421        C629   1.441       .  S
C422        C633   1.401       .  A
C422        H427   1.084       .  S
C423        C632   1.401       .  A
C423        C424   1.397       .  A
C423        C628   1.438       .  S
C424        C425   1.397       .  A
C424        H428   1.086       .  S
C425        C636   1.401       .  A
C425        C625   1.438       .  S
C426        C635   1.401       .  A
C426        H429   1.084       .  S
C430        C431   1.405       .  A
C430        C435   1.405       .  A
C430        C624   1.441       .  S
C431        C642   1.401       .  A
C431        H436   1.084       .  S
C432        C641   1.401       .  A
C432        C433   1.397       .  A
C432        C627   1.438       .  S
C433        C434   1.397       .  A
C433        H437   1.086       .  S
C434        C645   1.401       .  A
C434        C621   1.438       .  S
C435        C644   1.401       .  A
C435        H438   1.084       .  S
C439        C650   1.405       .  A
C439        C654   1.405       .  A
C439        C620   1.441       .  S
C440        C649   1.405       .  A
C440        C441   1.401       .  A
C440        H655   1.084       .  S
C441        C442   1.397       .  A
C441        C622   1.438       .  S
C442        C443   1.397       .  A
C442        H446   1.086       .  S
C443        C444   1.401       .  A
C443        C618   1.438       .  S
C444        C649   1.405       .  A
C444        H657   1.084       .  S
H445        C650   1.084       .  S
H447        C654   1.084       .  S
C448        C449   1.405       .  A
C448        C453   1.405       .  A
C448        C615   1.441       .  S
C449        C660   1.401       .  A
C449        H454   1.084       .  S
C450        C659   1.401       .  A
C450        C451   1.397       .  A
C450        C626   1.438       .  S
C451        C452   1.397       .  A
C451        H455   1.086       .  S
C452        C663   1.401       .  A
C452        C617   1.438       .  S
C453        C662   1.401       .  A
C453        H456   1.084       .  S
C457        C458   1.405       .  A
C457        C462   1.405       .  A
C457        C613   1.441       .  S
C458        C459   1.401       .  A
C458        H463   1.084       .  S
C459        C460   1.397       .  A
C459        C611   1.438       .  S
C460        C461   1.397       .  A
C460        H464   1.086       .  S
C461        C462   1.401       .  A
C461        C609   1.438       .  S
C462        H465   1.084       .  S
C466        C467   1.405       .  A
C466        C471   1.405       .  A
C466        C608   1.441       .  S
C467        C468   1.401       .  A
C467        H472   1.084       .  S
C468        C469   1.397       .  A
C468        C612   1.438       .  S
C469        C470   1.397       .  A
C469        H473   1.086       .  S
C470        C471   1.401       .  A
C470        C606   1.438       .  S
C471        H474   1.084       .  S
C475        C476   1.405       .  A
C475        C480   1.405       .  A
C475        C603   1.441       .  S
C476        C477   1.401       .  A
C476        H481   1.084       .  S
C477        C478   1.397       .  A
C477        C605   1.438       .  S
C478        C479   1.397       .  A
C478        H482   1.086       .  S
C479        C480   1.401       .  A
C479        C602   1.438       .  S
C480        H483   1.084       .  S
C484        C485   1.405       .  A
C484        C489   1.405       .  A
C484        C599   1.441       .  S
C485        C486   1.401       .  A
C485        H490   1.084       .  S
C486        C487   1.397       .  A
C486        C610   1.438       .  S
C487        C488   1.397       .  A
C487        H491   1.086       .  S
C488        C489   1.401       .  A
C488        C601   1.438       .  S
C489        H492   1.084       .  S
C493        C494   1.405       .  A
C493        C498   1.405       .  A
C493        C598   1.441       .  S
C494        C495   1.401       .  A
C494        H499   1.084       .  S
C495        C496   1.397       .  A
C495        C593   1.438       .  S
C496        C497   1.397       .  A
C496        H500   1.086       .  S
C497        C498   1.401       .  A
C497        C595   1.438       .  S
C498        H501   1.084       .  S
C502        C503   1.405       .  A
C502        C507   1.405       .  A
C502        C592   1.441       .  S
C503        C504   1.401       .  A
C503        H508   1.084       .  S
C504        C505   1.397       .  A
C504        C596   1.438       .  S
C505        C506   1.397       .  A
C505        H509   1.086       .  S
C506        C507   1.401       .  A
C506        C590   1.438       .  S
C507        H510   1.084       .  S
C511        C512   1.405       .  A
C511        C516   1.405       .  A
C511        C587   1.441       .  S
C512        C513   1.401       .  A
C512        H517   1.084       .  S
C513        C514   1.397       .  A
C513        C594   1.438       .  S
C514        C515   1.397       .  A
C514        H518   1.086       .  S
C515        C516   1.401       .  A
C515        C585   1.438       .  S
C516        H519   1.084       .  S
C520        C521   1.405       .  A
C520        C525   1.405       .  A
C520        C583   1.441       .  S
C521        C522   1.401       .  A
C521        H526   1.084       .  S
C522        C523   1.397       .  A
C522        C589   1.438       .  S
C523        C524   1.397       .  A
C523        H527   1.086       .  S
C524        C525   1.401       .  A
C524        C586   1.438       .  S
C525        H528   1.084       .  S
O529        C540   1.290       .  A
O529      Eu1405   2.461       .  S
O530        C541   1.290       .  A
O530      Eu1404   2.461   1_556  S
O531        C542   1.290       .  A
O531       Eu537   2.461       .  S
O532        C543   1.290       .  A
O532       Eu747   2.461       .  S
O533        C543   1.290       .  A
O533      Eu1407   2.461       .  S
O534        C542   1.290       .  A
O534      Eu1406   2.461       .  S
O535        C541   1.290       .  A
O535       Eu537   2.461   1_556  S
O536        C540   1.290       .  A
Eu537       O742   2.461   1_554  S
Eu537       O748   2.354   1_554  S
Eu537       O545   2.354       .  S
O538       Eu747   2.354       .  S
O538      Eu1407   2.354       .  S
O538      Eu1614   2.354       .  S
O539      Eu1405   2.354       .  S
O539       Eu986   2.354   1_565  S
C540        C630   1.437       .  S
C541        C623   1.437       .  S
C542        C600   1.437       .  S
C543        C614   1.437       .  S
H544        O545   0.965       .  S
O545      Eu1406   2.354       .  S
O545      Eu1404   2.354       .  S
H546        O547   0.965       .  S
O547      Eu1615   2.354       .  S
O547       Eu987   2.354   1_565  S
O548        C571   1.290       .  A
O548       Eu564   2.461       .  S
O549        C572   1.290       .  A
O549       Eu565   2.461   1_556  S
O550        C573   1.290       .  A
O550       Eu566   2.461       .  S
O551        C574   1.290       .  A
O551       Eu567   2.461       .  S
O552        C575   1.290       .  A
O553        C576   1.290       .  A
O554        C577   1.290       .  A
O554       Eu568   2.461       .  S
O555        C578   1.290       .  A
O555       Eu778   2.461       .  S
O556        C577   1.290       .  A
O556       Eu566   2.461       .  S
O557        C578   1.290       .  A
O557       Eu567   2.461       .  S
O558        C573   1.290       .  A
O558       Eu564   2.461       .  S
O559        C576   1.290       .  A
O559       Eu565   2.461       .  S
O560        C575   1.290       .  A
O560       Eu775   2.461       .  S
O561        C574   1.290       .  A
O561       Eu774   2.461       .  S
O562        C571   1.290       .  A
O562       Eu568   2.461       .  S
O563        C572   1.290       .  A
Eu564      O1370   2.461   1_454  S
Eu564       O771   2.461   1_554  S
Eu564      O1588   2.354   1_454  S
Eu564      O1385   2.354   1_455  S
Eu564       O792   2.354   1_554  S
Eu564       O570   2.354       .  S
Eu565      O1369   2.461   1_455  S
Eu565       O770   2.461   1_554  S
Eu565      O1379   2.354   1_455  S
Eu565      O1597   2.354   1_454  S
Eu565       O779   2.354   1_554  S
Eu565       O580   2.354       .  S
Eu566      O1374   2.461   1_455  S
Eu566       O959   2.354   1_455  S
Eu566      O1385   2.354   1_455  S
Eu566       O570   2.354       .  S
Eu567      O1373   2.461   1_455  S
Eu567      O1378   2.354   1_455  S
Eu567       O967   2.354   1_455  S
Eu567       O582   2.354       .  S
Eu568       O765   2.461   1_554  S
Eu568       O792   2.354   1_554  S
Eu568       O570   2.354       .  S
O569       Eu775   2.354       .  S
C571        C619   1.437       .  S
C572        C616   1.437       .  S
C573        C588   1.437       .  S
C574        C597   1.437       .  S
C575        C591   1.437       .  S
C576        C584   1.437       .  S
C577        C604   1.437       .  S
C578        C607   1.437       .  S
H579        O580   0.965       .  S
H581        O582   0.965       .  S
O582       Eu774   2.354       .  S
O582       Eu778   2.354       .  S
C583        C584   1.207       .  T
C585        C586   1.205       .  T
C587        C588   1.207       .  T
C589        C590   1.205       .  T
C591        C592   1.207       .  T
C593        C594   1.205       .  T
C595        C596   1.205       .  T
C597        C598   1.207       .  T
C599        C600   1.207       .  T
C601        C602   1.205       .  T
C603        C604   1.207       .  T
C605        C606   1.205       .  T
C607        C608   1.207       .  T
C609        C610   1.205       .  T
C611        C612   1.205       .  T
C613        C614   1.207       .  T
C615        C616   1.207       .  T
C617        C618   1.205       .  T
C619        C620   1.207       .  T
C621        C622   1.205       .  T
C623        C624   1.207       .  T
C625        C626   1.205       .  T
C627        C628   1.205       .  T
C629        C630   1.207       .  T
C631        C632   1.405       .  A
C631        C636   1.405       .  A
C631        C839   1.441       .  S
C632        H637   1.084       .  S
C633        C634   1.397   1_554  A
C633        C838   1.438       .  S
C634        C635   1.397   1_556  A
C634        H638   1.086       .  S
C635        C835   1.438       .  S
C636        H639   1.084       .  S
C640        C641   1.405       .  A
C640        C645   1.405       .  A
C640        C834   1.441       .  S
C641        H646   1.084       .  S
C642        C643   1.397   1_556  A
C642        C837   1.438       .  S
C643        C644   1.397   1_554  A
C643        H647   1.086       .  S
C644        C831   1.438       .  S
C645        H648   1.084       .  S
C649        C830   1.441       .  S
C650        C651   1.401       .  A
C651        C652   1.397   1_554  A
C651        C832   1.438       .  S
C652        C653   1.397   1_556  A
C652        H656   1.086       .  S
C653        C654   1.401       .  A
C653        C828   1.438       .  S
C658        C659   1.405       .  A
C658        C663   1.405       .  A
C658        C825   1.441       .  S
C659        H664   1.084       .  S
C660        C661   1.397   1_556  A
C660        C836   1.438       .  S
C661        C662   1.397   1_554  A
C661        H665   1.086       .  S
C662        C827   1.438       .  S
C663        H666   1.084       .  S
C667        C668   1.405       .  A
C667        C672   1.405       .  A
C667        C823   1.441       .  S
C668        C669   1.401       .  A
C668        H673   1.084       .  S
C669        C670   1.397       .  A
C669        C821   1.438       .  S
C670        C671   1.397       .  A
C670        H674   1.086       .  S
C671        C672   1.401       .  A
C671        C819   1.438       .  S
C672        H675   1.084       .  S
C676        C677   1.405       .  A
C676        C681   1.405       .  A
C676        C818   1.441       .  S
C677        C678   1.401       .  A
C677        H682   1.084       .  S
C678        C679   1.397       .  A
C678        C822   1.438       .  S
C679        C680   1.397       .  A
C679        H683   1.086       .  S
C680        C681   1.401       .  A
C680        C816   1.438       .  S
C681        H684   1.084       .  S
C685        C686   1.405       .  A
C685        C690   1.405       .  A
C685        C813   1.441       .  S
C686        C687   1.401       .  A
C686        H691   1.084       .  S
C687        C688   1.397       .  A
C687        C815   1.438       .  S
C688        C689   1.397       .  A
C688        H692   1.086       .  S
C689        C690   1.401       .  A
C689        C812   1.438       .  S
C690        H693   1.084       .  S
C694        C695   1.405       .  A
C694        C699   1.405       .  A
C694        C809   1.441       .  S
C695        C696   1.401       .  A
C695        H700   1.084       .  S
C696        C697   1.397       .  A
C696        C820   1.438       .  S
C697        C698   1.397       .  A
C697        H701   1.086       .  S
C698        C699   1.401       .  A
C698        C811   1.438       .  S
C699        H702   1.084       .  S
C703        C704   1.405       .  A
C703        C708   1.405       .  A
C703        C808   1.441       .  S
C704        C705   1.401       .  A
C704        H709   1.084       .  S
C705        C706   1.397       .  A
C705        C803   1.438       .  S
C706        C707   1.397       .  A
C706        H710   1.086       .  S
C707        C708   1.401       .  A
C707        C805   1.438       .  S
C708        H711   1.084       .  S
C712        C713   1.405       .  A
C712        C717   1.405       .  A
C712        C802   1.441       .  S
C713        C714   1.401       .  A
C713        H718   1.084       .  S
C714        C715   1.397       .  A
C714        C806   1.438       .  S
C715        C716   1.397       .  A
C715        H719   1.086       .  S
C716        C717   1.401       .  A
C716        C800   1.438       .  S
C717        H720   1.084       .  S
C721        C722   1.405       .  A
C721        C726   1.405       .  A
C721        C797   1.441       .  S
C722        C723   1.401       .  A
C722        H727   1.084       .  S
C723        C724   1.397       .  A
C723        C804   1.438       .  S
C724        C725   1.397       .  A
C724        H728   1.086       .  S
C725        C726   1.401       .  A
C725        C795   1.438       .  S
C726        H729   1.084       .  S
C730        C731   1.405       .  A
C730        C735   1.405       .  A
C730        C793   1.441       .  S
C731        C732   1.401       .  A
C731        H736   1.084       .  S
C732        C733   1.397       .  A
C732        C799   1.438       .  S
C733        C734   1.397       .  A
C733        H737   1.086       .  S
C734        C735   1.401       .  A
C734        C796   1.438       .  S
C735        H738   1.084       .  S
O739        C750   1.290       .  A
O739      Eu1615   2.461       .  S
O740        C751   1.290       .  A
O740      Eu1614   2.461       .  S
O741        C752   1.290       .  A
O741       Eu747   2.461       .  S
O742        C753   1.290       .  A
O743        C753   1.290       .  A
O743      Eu1617   2.461       .  S
O744        C752   1.290       .  A
O744      Eu1616   2.461       .  S
O745        C751   1.290       .  A
O745       Eu747   2.461       .  S
O746        C750   1.290       .  A
Eu747       O755   2.354       .  S
O748      Eu1617   2.354       .  S
O748      Eu1404   2.354   1_556  S
O749      Eu1615   2.354       .  S
O749      Eu1196   2.354   1_565  S
C750        C840   1.437       .  S
C751        C833   1.437       .  S
C752        C810   1.437       .  S
C753        C824   1.437       .  S
H754        O755   0.965       .  S
O755      Eu1616   2.354       .  S
O755      Eu1614   2.354       .  S
H756        O757   0.965       .  S
O757      Eu1405   2.354   1_556  S
O757      Eu1197   2.354   1_565  S
O758        C781   1.290       .  A
O758       Eu774   2.461       .  S
O759        C782   1.290       .  A
O759       Eu775   2.461       .  S
O760        C783   1.290       .  A
O760       Eu776   2.461       .  S
O761        C784   1.290       .  A
O761       Eu777   2.461       .  S
O762        C785   1.290       .  A
O763        C786   1.290       .  A
O764        C787   1.290       .  A
O764       Eu778   2.461       .  S
O765        C788   1.290       .  A
O766        C787   1.290       .  A
O766       Eu776   2.461       .  S
O767        C788   1.290       .  A
O767       Eu777   2.461       .  S
O768        C783   1.290       .  A
O768       Eu774   2.461       .  S
O769        C786   1.290       .  A
O769       Eu775   2.461       .  S
O770        C785   1.290       .  A
O771        C784   1.290       .  A
O772        C781   1.290       .  A
O772       Eu778   2.461       .  S
O773        C782   1.290       .  A
Eu774      O1580   2.461   1_455  S
Eu774      O1378   2.354   1_455  S
Eu774      O1595   2.354   1_455  S
Eu774       O780   2.354       .  S
Eu775      O1579   2.461   1_455  S
Eu775      O1589   2.354   1_455  S
Eu775      O1387   2.354   1_455  S
Eu775       O790   2.354       .  S
Eu776      O1584   2.461   1_455  S
Eu776      O1169   2.354   1_455  S
Eu776      O1595   2.354   1_455  S
Eu776       O780   2.354       .  S
Eu777      O1583   2.461   1_455  S
Eu777      O1588   2.354   1_455  S
Eu777      O1177   2.354   1_455  S
Eu777       O792   2.354       .  S
Eu778       O780   2.354       .  S
C781        C829   1.437       .  S
C782        C826   1.437       .  S
C783        C798   1.437       .  S
C784        C807   1.437       .  S
C785        C801   1.437       .  S
C786        C794   1.437       .  S
C787        C814   1.437       .  S
C788        C817   1.437       .  S
H789        O790   0.965       .  S
H791        O792   0.965       .  S
C793        C794   1.207       .  T
C795        C796   1.205       .  T
C797        C798   1.207       .  T
C799        C800   1.205       .  T
C801        C802   1.207       .  T
C803        C804   1.205       .  T
C805        C806   1.205       .  T
C807        C808   1.207       .  T
C809        C810   1.207       .  T
C811        C812   1.205       .  T
C813        C814   1.207       .  T
C815        C816   1.205       .  T
C817        C818   1.207       .  T
C819        C820   1.205       .  T
C821        C822   1.205       .  T
C823        C824   1.207       .  T
C825        C826   1.207       .  T
C827        C828   1.205   1_556  T
C829        C830   1.207       .  T
C831        C832   1.205   1_556  T
C833        C834   1.207       .  T
C835        C836   1.205   1_554  T
C837        C838   1.205   1_556  T
C839        C840   1.207       .  T
C841        C842   1.405       .  A
C841        C846   1.405       .  A
C841       C1049   1.441       .  S
C842       C1053   1.401       .  A
C842        H847   1.084       .  S
C843       C1052   1.401       .  A
C843        C844   1.397       .  A
C843       C1048   1.438       .  S
C844        C845   1.397       .  A
C844        H848   1.086       .  S
C845       C1056   1.401       .  A
C845       C1045   1.438       .  S
C846       C1055   1.401       .  A
C846        H849   1.084       .  S
C850        C851   1.405       .  A
C850        C855   1.405       .  A
C850       C1044   1.441       .  S
C851       C1062   1.401       .  A
C851        H856   1.084       .  S
C852       C1061   1.401       .  A
C852        C853   1.397       .  A
C852       C1047   1.438       .  S
C853        C854   1.397       .  A
C853        H857   1.086       .  S
C854       C1065   1.401       .  A
C854       C1041   1.438       .  S
C855       C1064   1.401       .  A
C855        H858   1.084       .  S
C859       C1070   1.405       .  A
C859       C1074   1.405       .  A
C859       C1040   1.441       .  S
C860       C1069   1.405       .  A
C860        C861   1.401       .  A
C860       H1075   1.084       .  S
C861        C862   1.397       .  A
C861       C1042   1.438       .  S
C862        C863   1.397       .  A
C862        H866   1.086       .  S
C863        C864   1.401       .  A
C863       C1038   1.438       .  S
C864       C1069   1.405       .  A
C864       H1077   1.084       .  S
H865       C1070   1.084       .  S
H867       C1074   1.084       .  S
C868        C869   1.405       .  A
C868        C873   1.405       .  A
C868       C1035   1.441       .  S
C869       C1080   1.401       .  A
C869        H874   1.084       .  S
C870       C1079   1.401       .  A
C870        C871   1.397       .  A
C870       C1046   1.438       .  S
C871        C872   1.397       .  A
C871        H875   1.086       .  S
C872       C1083   1.401       .  A
C872       C1037   1.438       .  S
C873       C1082   1.401       .  A
C873        H876   1.084       .  S
C877        C878   1.405       .  A
C877        C882   1.405       .  A
C877       C1033   1.441       .  S
C878        C879   1.401       .  A
C878        H883   1.084       .  S
C879        C880   1.397       .  A
C879       C1031   1.438       .  S
C880        C881   1.397       .  A
C880        H884   1.086       .  S
C881        C882   1.401       .  A
C881       C1029   1.438       .  S
C882        H885   1.084       .  S
C886        C887   1.405       .  A
C886        C891   1.405       .  A
C886       C1028   1.441       .  S
C887        C888   1.401       .  A
C887        H892   1.084       .  S
C888        C889   1.397       .  A
C888       C1032   1.438       .  S
C889        C890   1.397       .  A
C889        H893   1.086       .  S
C890        C891   1.401       .  A
C890       C1026   1.438       .  S
C891        H894   1.084       .  S
C895        C896   1.405       .  A
C895        C900   1.405       .  A
C895       C1023   1.441       .  S
C896        C897   1.401       .  A
C896        H901   1.084       .  S
C897        C898   1.397       .  A
C897       C1025   1.438       .  S
C898        C899   1.397       .  A
C898        H902   1.086       .  S
C899        C900   1.401       .  A
C899       C1022   1.438       .  S
C900        H903   1.084       .  S
C904        C905   1.405       .  A
C904        C909   1.405       .  A
C904       C1019   1.441       .  S
C905        C906   1.401       .  A
C905        H910   1.084       .  S
C906        C907   1.397       .  A
C906       C1030   1.438       .  S
C907        C908   1.397       .  A
C907        H911   1.086       .  S
C908        C909   1.401       .  A
C908       C1021   1.438       .  S
C909        H912   1.084       .  S
C913        C914   1.405       .  A
C913        C918   1.405       .  A
C913       C1018   1.441       .  S
C914        C915   1.401       .  A
C914        H919   1.084       .  S
C915        C916   1.397       .  A
C915       C1013   1.438       .  S
C916        C917   1.397       .  A
C916        H920   1.086       .  S
C917        C918   1.401       .  A
C917       C1015   1.438       .  S
C918        H921   1.084       .  S
C922        C923   1.405       .  A
C922        C927   1.405       .  A
C922       C1012   1.441       .  S
C923        C924   1.401       .  A
C923        H928   1.084       .  S
C924        C925   1.397       .  A
C924       C1016   1.438       .  S
C925        C926   1.397       .  A
C925        H929   1.086       .  S
C926        C927   1.401       .  A
C926       C1010   1.438       .  S
C927        H930   1.084       .  S
C931        C932   1.405       .  A
C931        C936   1.405       .  A
C931       C1007   1.441       .  S
C932        C933   1.401       .  A
C932        H937   1.084       .  S
C933        C934   1.397       .  A
C933       C1014   1.438       .  S
C934        C935   1.397       .  A
C934        H938   1.086       .  S
C935        C936   1.401       .  A
C935       C1005   1.438       .  S
C936        H939   1.084       .  S
C940        C941   1.405       .  A
C940        C945   1.405       .  A
C940       C1003   1.441       .  S
C941        C942   1.401       .  A
C941        H946   1.084       .  S
C942        C943   1.397       .  A
C942       C1009   1.438       .  S
C943        C944   1.397       .  A
C943        H947   1.086       .  S
C944        C945   1.401       .  A
C944       C1006   1.438       .  S
C945        H948   1.084       .  S
O949        C960   1.290       .  A
O950        C961   1.290       .  A
O951        C962   1.290       .  A
O951       Eu957   2.461       .  S
O952        C963   1.290       .  A
O952      Eu1167   2.461       .  S
O953        C963   1.290       .  A
O954        C962   1.290       .  A
O955        C961   1.290       .  A
O955       Eu957   2.461   1_556  S
O956        C960   1.290       .  A
O956      Eu1377   2.461       .  S
Eu957      O1162   2.461   1_554  S
Eu957      O1376   2.461   1_545  S
Eu957      O1597   2.354   1_544  S
Eu957      O1379   2.354   1_545  S
Eu957      O1168   2.354   1_554  S
Eu957       O965   2.354       .  S
O958      Eu1167   2.354       .  S
O959      Eu1377   2.354       .  S
C960       C1050   1.437       .  S
C961       C1043   1.437       .  S
C962       C1020   1.437       .  S
C963       C1034   1.437       .  S
H964        O965   0.965       .  S
H966        O967   0.965       .  S
O967      Eu1587   2.354       .  S
O968        C991   1.290       .  A
O968       Eu984   2.461       .  S
O969        C992   1.290       .  A
O969       Eu985   2.461   1_556  S
O970        C993   1.290       .  A
O970       Eu986   2.461       .  S
O971        C994   1.290       .  A
O971       Eu987   2.461       .  S
O972        C995   1.290       .  A
O972      Eu1407   2.461       .  S
O973        C996   1.290       .  A
O973      Eu1406   2.461       .  S
O974        C997   1.290       .  A
O974       Eu988   2.461       .  S
O975        C998   1.290       .  A
O975      Eu1198   2.461       .  S
O976        C997   1.290       .  A
O976       Eu986   2.461       .  S
O977        C998   1.290       .  A
O977       Eu987   2.461       .  S
O978        C993   1.290       .  A
O978       Eu984   2.461       .  S
O979        C996   1.290       .  A
O979       Eu985   2.461       .  S
O980        C995   1.290       .  A
O980      Eu1195   2.461       .  S
O981        C994   1.290       .  A
O981      Eu1194   2.461       .  S
O982        C991   1.290       .  A
O982       Eu988   2.461       .  S
O983        C992   1.290       .  A
O983      Eu1408   2.461   1_556  S
Eu984      O1191   2.461   1_554  S
Eu984      O1212   2.354   1_554  S
Eu984       O990   2.354       .  S
Eu985      O1190   2.461   1_554  S
Eu985      O1199   2.354   1_554  S
Eu985      O1000   2.354       .  S
Eu986      O1393   2.461   1_545  S
Eu986      O1420   2.354   1_545  S
Eu986       O990   2.354       .  S
Eu987      O1392   2.461   1_545  S
Eu987      O1409   2.354   1_545  S
Eu987      O1002   2.354       .  S
Eu988      O1185   2.461   1_554  S
Eu988      O1403   2.461   1_544  S
Eu988      O1619   2.354   1_544  S
Eu988      O1420   2.354   1_545  S
Eu988      O1212   2.354   1_554  S
Eu988       O990   2.354       .  S
O989      Eu1195   2.354       .  S
O989      Eu1407   2.354       .  S
O989      Eu1618   2.354       .  S
C991       C1039   1.437       .  S
C992       C1036   1.437       .  S
C993       C1008   1.437       .  S
C994       C1017   1.437       .  S
C995       C1011   1.437       .  S
C996       C1004   1.437       .  S
C997       C1024   1.437       .  S
C998       C1027   1.437       .  S
H999       O1000   0.965       .  S
O1000     Eu1406   2.354       .  S
O1000     Eu1408   2.354       .  S
H1001      O1002   0.965       .  S
O1002     Eu1194   2.354       .  S
O1002     Eu1198   2.354       .  S
C1003      C1004   1.207       .  T
C1005      C1006   1.205       .  T
C1007      C1008   1.207       .  T
C1009      C1010   1.205       .  T
C1011      C1012   1.207       .  T
C1013      C1014   1.205       .  T
C1015      C1016   1.205       .  T
C1017      C1018   1.207       .  T
C1019      C1020   1.207       .  T
C1021      C1022   1.205       .  T
C1023      C1024   1.207       .  T
C1025      C1026   1.205       .  T
C1027      C1028   1.207       .  T
C1029      C1030   1.205       .  T
C1031      C1032   1.205       .  T
C1033      C1034   1.207       .  T
C1035      C1036   1.207       .  T
C1037      C1038   1.205       .  T
C1039      C1040   1.207       .  T
C1041      C1042   1.205       .  T
C1043      C1044   1.207       .  T
C1045      C1046   1.205       .  T
C1047      C1048   1.205       .  T
C1049      C1050   1.207       .  T
C1051      C1052   1.405       .  A
C1051      C1056   1.405       .  A
C1051      C1259   1.441       .  S
C1052      H1057   1.084       .  S
C1053      C1054   1.397   1_554  A
C1053      C1258   1.438       .  S
C1054      C1055   1.397   1_556  A
C1054      H1058   1.086       .  S
C1055      C1255   1.438       .  S
C1056      H1059   1.084       .  S
C1060      C1061   1.405       .  A
C1060      C1065   1.405       .  A
C1060      C1254   1.441       .  S
C1061      H1066   1.084       .  S
C1062      C1063   1.397   1_556  A
C1062      C1257   1.438       .  S
C1063      C1064   1.397   1_554  A
C1063      H1067   1.086       .  S
C1064      C1251   1.438       .  S
C1065      H1068   1.084       .  S
C1069      C1250   1.441       .  S
C1070      C1071   1.401       .  A
C1071      C1072   1.397   1_554  A
C1071      C1252   1.438       .  S
C1072      C1073   1.397   1_556  A
C1072      H1076   1.086       .  S
C1073      C1074   1.401       .  A
C1073      C1248   1.438       .  S
C1078      C1079   1.405       .  A
C1078      C1083   1.405       .  A
C1078      C1245   1.441       .  S
C1079      H1084   1.084       .  S
C1080      C1081   1.397   1_556  A
C1080      C1256   1.438       .  S
C1081      C1082   1.397   1_554  A
C1081      H1085   1.086       .  S
C1082      C1247   1.438       .  S
C1083      H1086   1.084       .  S
C1087      C1088   1.405       .  A
C1087      C1092   1.405       .  A
C1087      C1243   1.441       .  S
C1088      C1089   1.401       .  A
C1088      H1093   1.084       .  S
C1089      C1090   1.397       .  A
C1089      C1241   1.438       .  S
C1090      C1091   1.397       .  A
C1090      H1094   1.086       .  S
C1091      C1092   1.401       .  A
C1091      C1239   1.438       .  S
C1092      H1095   1.084       .  S
C1096      C1097   1.405       .  A
C1096      C1101   1.405       .  A
C1096      C1238   1.441       .  S
C1097      C1098   1.401       .  A
C1097      H1102   1.084       .  S
C1098      C1099   1.397       .  A
C1098      C1242   1.438       .  S
C1099      C1100   1.397       .  A
C1099      H1103   1.086       .  S
C1100      C1101   1.401       .  A
C1100      C1236   1.438       .  S
C1101      H1104   1.084       .  S
C1105      C1106   1.405       .  A
C1105      C1110   1.405       .  A
C1105      C1233   1.441       .  S
C1106      C1107   1.401       .  A
C1106      H1111   1.084       .  S
C1107      C1108   1.397       .  A
C1107      C1235   1.438       .  S
C1108      C1109   1.397       .  A
C1108      H1112   1.086       .  S
C1109      C1110   1.401       .  A
C1109      C1232   1.438       .  S
C1110      H1113   1.084       .  S
C1114      C1115   1.405       .  A
C1114      C1119   1.405       .  A
C1114      C1229   1.441       .  S
C1115      C1116   1.401       .  A
C1115      H1120   1.084       .  S
C1116      C1117   1.397       .  A
C1116      C1240   1.438       .  S
C1117      C1118   1.397       .  A
C1117      H1121   1.086       .  S
C1118      C1119   1.401       .  A
C1118      C1231   1.438       .  S
C1119      H1122   1.084       .  S
C1123      C1124   1.405       .  A
C1123      C1128   1.405       .  A
C1123      C1228   1.441       .  S
C1124      C1125   1.401       .  A
C1124      H1129   1.084       .  S
C1125      C1126   1.397       .  A
C1125      C1223   1.438       .  S
C1126      C1127   1.397       .  A
C1126      H1130   1.086       .  S
C1127      C1128   1.401       .  A
C1127      C1225   1.438       .  S
C1128      H1131   1.084       .  S
C1132      C1133   1.405       .  A
C1132      C1137   1.405       .  A
C1132      C1222   1.441       .  S
C1133      C1134   1.401       .  A
C1133      H1138   1.084       .  S
C1134      C1135   1.397       .  A
C1134      C1226   1.438       .  S
C1135      C1136   1.397       .  A
C1135      H1139   1.086       .  S
C1136      C1137   1.401       .  A
C1136      C1220   1.438       .  S
C1137      H1140   1.084       .  S
C1141      C1142   1.405       .  A
C1141      C1146   1.405       .  A
C1141      C1217   1.441       .  S
C1142      C1143   1.401       .  A
C1142      H1147   1.084       .  S
C1143      C1144   1.397       .  A
C1143      C1224   1.438       .  S
C1144      C1145   1.397       .  A
C1144      H1148   1.086       .  S
C1145      C1146   1.401       .  A
C1145      C1215   1.438       .  S
C1146      H1149   1.084       .  S
C1150      C1151   1.405       .  A
C1150      C1155   1.405       .  A
C1150      C1213   1.441       .  S
C1151      C1152   1.401       .  A
C1151      H1156   1.084       .  S
C1152      C1153   1.397       .  A
C1152      C1219   1.438       .  S
C1153      C1154   1.397       .  A
C1153      H1157   1.086       .  S
C1154      C1155   1.401       .  A
C1154      C1216   1.438       .  S
C1155      H1158   1.084       .  S
O1159      C1170   1.290       .  A
O1160      C1171   1.290       .  A
O1161      C1172   1.290       .  A
O1161     Eu1167   2.461       .  S
O1162      C1173   1.290       .  A
O1163      C1173   1.290       .  A
O1164      C1172   1.290       .  A
O1165      C1171   1.290       .  A
O1165     Eu1167   2.461       .  S
O1166      C1170   1.290       .  A
O1166     Eu1587   2.461       .  S
Eu1167     O1586   2.461   1_545  S
Eu1167     O1387   2.354   1_545  S
Eu1167     O1589   2.354   1_545  S
Eu1167     O1175   2.354       .  S
O1169     Eu1587   2.354       .  S
C1170      C1260   1.437       .  S
C1171      C1253   1.437       .  S
C1172      C1230   1.437       .  S
C1173      C1244   1.437       .  S
H1174      O1175   0.965       .  S
H1176      O1177   0.965       .  S
O1177     Eu1377   2.354   1_556  S
O1178      C1201   1.290       .  A
O1178     Eu1194   2.461       .  S
O1179      C1202   1.290       .  A
O1179     Eu1195   2.461       .  S
O1180      C1203   1.290       .  A
O1180     Eu1196   2.461       .  S
O1181      C1204   1.290       .  A
O1181     Eu1197   2.461       .  S
O1182      C1205   1.290       .  A
O1182     Eu1617   2.461       .  S
O1183      C1206   1.290       .  A
O1183     Eu1616   2.461       .  S
O1184      C1207   1.290       .  A
O1184     Eu1198   2.461       .  S
O1185      C1208   1.290       .  A
O1186      C1207   1.290       .  A
O1186     Eu1196   2.461       .  S
O1187      C1208   1.290       .  A
O1187     Eu1197   2.461       .  S
O1188      C1203   1.290       .  A
O1188     Eu1194   2.461       .  S
O1189      C1206   1.290       .  A
O1189     Eu1195   2.461       .  S
O1190      C1205   1.290       .  A
O1191      C1204   1.290       .  A
O1192      C1201   1.290       .  A
O1192     Eu1198   2.461       .  S
O1193      C1202   1.290       .  A
O1193     Eu1618   2.461       .  S
Eu1194     O1200   2.354       .  S
Eu1195     O1210   2.354       .  S
Eu1196     O1603   2.461   1_545  S
Eu1196     O1630   2.354   1_545  S
Eu1196     O1200   2.354       .  S
Eu1197     O1602   2.461   1_545  S
Eu1197     O1619   2.354   1_545  S
Eu1197     O1212   2.354       .  S
Eu1198     O1613   2.461   1_545  S
Eu1198     O1409   2.354   1_545  S
Eu1198     O1630   2.354   1_545  S
Eu1198     O1200   2.354       .  S
O1199     Eu1617   2.354       .  S
O1199     Eu1408   2.354   1_556  S
C1201      C1249   1.437       .  S
C1202      C1246   1.437       .  S
C1203      C1218   1.437       .  S
C1204      C1227   1.437       .  S
C1205      C1221   1.437       .  S
C1206      C1214   1.437       .  S
C1207      C1234   1.437       .  S
C1208      C1237   1.437       .  S
H1209      O1210   0.965       .  S
O1210     Eu1616   2.354       .  S
O1210     Eu1618   2.354       .  S
H1211      O1212   0.965       .  S
C1213      C1214   1.207       .  T
C1215      C1216   1.205       .  T
C1217      C1218   1.207       .  T
C1219      C1220   1.205       .  T
C1221      C1222   1.207       .  T
C1223      C1224   1.205       .  T
C1225      C1226   1.205       .  T
C1227      C1228   1.207       .  T
C1229      C1230   1.207       .  T
C1231      C1232   1.205       .  T
C1233      C1234   1.207       .  T
C1235      C1236   1.205       .  T
C1237      C1238   1.207       .  T
C1239      C1240   1.205       .  T
C1241      C1242   1.205       .  T
C1243      C1244   1.207       .  T
C1245      C1246   1.207       .  T
C1247      C1248   1.205   1_556  T
C1249      C1250   1.207       .  T
C1251      C1252   1.205   1_556  T
C1253      C1254   1.207       .  T
C1255      C1256   1.205   1_554  T
C1257      C1258   1.205   1_556  T
C1259      C1260   1.207       .  T
C1261      C1262   1.405       .  A
C1261      C1266   1.405       .  A
C1261      C1469   1.441       .  S
C1262      C1473   1.401       .  A
C1262      H1267   1.084       .  S
C1263      C1472   1.401       .  A
C1263      C1264   1.397       .  A
C1263      C1468   1.438       .  S
C1264      C1265   1.397       .  A
C1264      H1268   1.086       .  S
C1265      C1476   1.401       .  A
C1265      C1465   1.438       .  S
C1266      C1475   1.401       .  A
C1266      H1269   1.084       .  S
C1270      C1271   1.405       .  A
C1270      C1275   1.405       .  A
C1270      C1464   1.441       .  S
C1271      C1482   1.401       .  A
C1271      H1276   1.084       .  S
C1272      C1481   1.401       .  A
C1272      C1273   1.397       .  A
C1272      C1467   1.438       .  S
C1273      C1274   1.397       .  A
C1273      H1277   1.086       .  S
C1274      C1485   1.401       .  A
C1274      C1461   1.438       .  S
C1275      C1484   1.401       .  A
C1275      H1278   1.084       .  S
C1279      C1490   1.405       .  A
C1279      C1494   1.405       .  A
C1279      C1460   1.441       .  S
C1280      C1489   1.405       .  A
C1280      C1281   1.401       .  A
C1280      H1495   1.084       .  S
C1281      C1282   1.397       .  A
C1281      C1462   1.438       .  S
C1282      C1283   1.397       .  A
C1282      H1286   1.086       .  S
C1283      C1284   1.401       .  A
C1283      C1458   1.438       .  S
C1284      C1489   1.405       .  A
C1284      H1497   1.084       .  S
H1285      C1490   1.084       .  S
H1287      C1494   1.084       .  S
C1288      C1289   1.405       .  A
C1288      C1293   1.405       .  A
C1288      C1455   1.441       .  S
C1289      C1500   1.401       .  A
C1289      H1294   1.084       .  S
C1290      C1499   1.401       .  A
C1290      C1291   1.397       .  A
C1290      C1466   1.438       .  S
C1291      C1292   1.397       .  A
C1291      H1295   1.086       .  S
C1292      C1503   1.401       .  A
C1292      C1457   1.438       .  S
C1293      C1502   1.401       .  A
C1293      H1296   1.084       .  S
C1297      C1298   1.405       .  A
C1297      C1302   1.405       .  A
C1297      C1453   1.441       .  S
C1298      C1299   1.401       .  A
C1298      H1303   1.084       .  S
C1299      C1300   1.397       .  A
C1299      C1451   1.438       .  S
C1300      C1301   1.397       .  A
C1300      H1304   1.086       .  S
C1301      C1302   1.401       .  A
C1301      C1449   1.438       .  S
C1302      H1305   1.084       .  S
C1306      C1307   1.405       .  A
C1306      C1311   1.405       .  A
C1306      C1448   1.441       .  S
C1307      C1308   1.401       .  A
C1307      H1312   1.084       .  S
C1308      C1309   1.397       .  A
C1308      C1452   1.438       .  S
C1309      C1310   1.397       .  A
C1309      H1313   1.086       .  S
C1310      C1311   1.401       .  A
C1310      C1446   1.438       .  S
C1311      H1314   1.084       .  S
C1315      C1316   1.405       .  A
C1315      C1320   1.405       .  A
C1315      C1443   1.441       .  S
C1316      C1317   1.401       .  A
C1316      H1321   1.084       .  S
C1317      C1318   1.397       .  A
C1317      C1445   1.438       .  S
C1318      C1319   1.397       .  A
C1318      H1322   1.086       .  S
C1319      C1320   1.401       .  A
C1319      C1442   1.438       .  S
C1320      H1323   1.084       .  S
C1324      C1325   1.405       .  A
C1324      C1329   1.405       .  A
C1324      C1439   1.441       .  S
C1325      C1326   1.401       .  A
C1325      H1330   1.084       .  S
C1326      C1327   1.397       .  A
C1326      C1450   1.438       .  S
C1327      C1328   1.397       .  A
C1327      H1331   1.086       .  S
C1328      C1329   1.401       .  A
C1328      C1441   1.438       .  S
C1329      H1332   1.084       .  S
C1333      C1334   1.405       .  A
C1333      C1338   1.405       .  A
C1333      C1438   1.441       .  S
C1334      C1335   1.401       .  A
C1334      H1339   1.084       .  S
C1335      C1336   1.397       .  A
C1335      C1433   1.438       .  S
C1336      C1337   1.397       .  A
C1336      H1340   1.086       .  S
C1337      C1338   1.401       .  A
C1337      C1435   1.438       .  S
C1338      H1341   1.084       .  S
C1342      C1343   1.405       .  A
C1342      C1347   1.405       .  A
C1342      C1432   1.441       .  S
C1343      C1344   1.401       .  A
C1343      H1348   1.084       .  S
C1344      C1345   1.397       .  A
C1344      C1436   1.438       .  S
C1345      C1346   1.397       .  A
C1345      H1349   1.086       .  S
C1346      C1347   1.401       .  A
C1346      C1430   1.438       .  S
C1347      H1350   1.084       .  S
C1351      C1352   1.405       .  A
C1351      C1356   1.405       .  A
C1351      C1427   1.441       .  S
C1352      C1353   1.401       .  A
C1352      H1357   1.084       .  S
C1353      C1354   1.397       .  A
C1353      C1434   1.438       .  S
C1354      C1355   1.397       .  A
C1354      H1358   1.086       .  S
C1355      C1356   1.401       .  A
C1355      C1425   1.438       .  S
C1356      H1359   1.084       .  S
C1360      C1361   1.405       .  A
C1360      C1365   1.405       .  A
C1360      C1423   1.441       .  S
C1361      C1362   1.401       .  A
C1361      H1366   1.084       .  S
C1362      C1363   1.397       .  A
C1362      C1429   1.438       .  S
C1363      C1364   1.397       .  A
C1363      H1367   1.086       .  S
C1364      C1365   1.401       .  A
C1364      C1426   1.438       .  S
C1365      H1368   1.084       .  S
O1369      C1380   1.290       .  A
O1370      C1381   1.290       .  A
O1371      C1382   1.290       .  A
O1371     Eu1377   2.461       .  S
O1372      C1383   1.290       .  A
O1372     Eu1587   2.461       .  S
O1373      C1383   1.290       .  A
O1374      C1382   1.290       .  A
O1375      C1381   1.290       .  A
O1375     Eu1377   2.461   1_556  S
O1376      C1380   1.290       .  A
Eu1377     O1582   2.461   1_554  S
Eu1377     O1588   2.354   1_554  S
Eu1377     O1385   2.354       .  S
O1378     Eu1587   2.354       .  S
C1380      C1470   1.437       .  S
C1381      C1463   1.437       .  S
C1382      C1440   1.437       .  S
C1383      C1454   1.437       .  S
H1384      O1385   0.965       .  S
H1386      O1387   0.965       .  S
O1388      C1411   1.290       .  A
O1388     Eu1404   2.461       .  S
O1389      C1412   1.290       .  A
O1389     Eu1405   2.461   1_556  S
O1390      C1413   1.290       .  A
O1390     Eu1406   2.461       .  S
O1391      C1414   1.290       .  A
O1391     Eu1407   2.461       .  S
O1392      C1415   1.290       .  A
O1393      C1416   1.290       .  A
O1394      C1417   1.290       .  A
O1394     Eu1408   2.461       .  S
O1395      C1418   1.290       .  A
O1395     Eu1618   2.461       .  S
O1396      C1417   1.290       .  A
O1396     Eu1406   2.461       .  S
O1397      C1418   1.290       .  A
O1397     Eu1407   2.461       .  S
O1398      C1413   1.290       .  A
O1398     Eu1404   2.461       .  S
O1399      C1416   1.290       .  A
O1399     Eu1405   2.461       .  S
O1400      C1415   1.290       .  A
O1400     Eu1615   2.461       .  S
O1401      C1414   1.290       .  A
O1401     Eu1614   2.461       .  S
O1402      C1411   1.290       .  A
O1402     Eu1408   2.461       .  S
O1403      C1412   1.290       .  A
Eu1404     O1611   2.461   1_554  S
Eu1404     O1632   2.354   1_554  S
Eu1404     O1410   2.354       .  S
Eu1405     O1610   2.461   1_554  S
Eu1405     O1619   2.354   1_554  S
Eu1405     O1420   2.354       .  S
Eu1406     O1410   2.354       .  S
Eu1407     O1422   2.354       .  S
Eu1408     O1605   2.461   1_554  S
Eu1408     O1632   2.354   1_554  S
Eu1408     O1410   2.354       .  S
O1409     Eu1615   2.354       .  S
C1411      C1459   1.437       .  S
C1412      C1456   1.437       .  S
C1413      C1428   1.437       .  S
C1414      C1437   1.437       .  S
C1415      C1431   1.437       .  S
C1416      C1424   1.437       .  S
C1417      C1444   1.437       .  S
C1418      C1447   1.437       .  S
H1419      O1420   0.965       .  S
H1421      O1422   0.965       .  S
O1422     Eu1614   2.354       .  S
O1422     Eu1618   2.354       .  S
C1423      C1424   1.207       .  T
C1425      C1426   1.205       .  T
C1427      C1428   1.207       .  T
C1429      C1430   1.205       .  T
C1431      C1432   1.207       .  T
C1433      C1434   1.205       .  T
C1435      C1436   1.205       .  T
C1437      C1438   1.207       .  T
C1439      C1440   1.207       .  T
C1441      C1442   1.205       .  T
C1443      C1444   1.207       .  T
C1445      C1446   1.205       .  T
C1447      C1448   1.207       .  T
C1449      C1450   1.205       .  T
C1451      C1452   1.205       .  T
C1453      C1454   1.207       .  T
C1455      C1456   1.207       .  T
C1457      C1458   1.205       .  T
C1459      C1460   1.207       .  T
C1461      C1462   1.205       .  T
C1463      C1464   1.207       .  T
C1465      C1466   1.205       .  T
C1467      C1468   1.205       .  T
C1469      C1470   1.207       .  T
C1471      C1472   1.405       .  A
C1471      C1476   1.405       .  A
C1471      C1679   1.441       .  S
C1472      H1477   1.084       .  S
C1473      C1474   1.397   1_554  A
C1473      C1678   1.438       .  S
C1474      C1475   1.397   1_556  A
C1474      H1478   1.086       .  S
C1475      C1675   1.438       .  S
C1476      H1479   1.084       .  S
C1480      C1481   1.405       .  A
C1480      C1485   1.405       .  A
C1480      C1674   1.441       .  S
C1481      H1486   1.084       .  S
C1482      C1483   1.397   1_556  A
C1482      C1677   1.438       .  S
C1483      C1484   1.397   1_554  A
C1483      H1487   1.086       .  S
C1484      C1671   1.438       .  S
C1485      H1488   1.084       .  S
C1489      C1670   1.441       .  S
C1490      C1491   1.401       .  A
C1491      C1492   1.397   1_554  A
C1491      C1672   1.438       .  S
C1492      C1493   1.397   1_556  A
C1492      H1496   1.086       .  S
C1493      C1494   1.401       .  A
C1493      C1668   1.438       .  S
C1498      C1499   1.405       .  A
C1498      C1503   1.405       .  A
C1498      C1665   1.441       .  S
C1499      H1504   1.084       .  S
C1500      C1501   1.397   1_556  A
C1500      C1676   1.438       .  S
C1501      C1502   1.397   1_554  A
C1501      H1505   1.086       .  S
C1502      C1667   1.438       .  S
C1503      H1506   1.084       .  S
C1507      C1508   1.405       .  A
C1507      C1512   1.405       .  A
C1507      C1663   1.441       .  S
C1508      C1509   1.401       .  A
C1508      H1513   1.084       .  S
C1509      C1510   1.397       .  A
C1509      C1661   1.438       .  S
C1510      C1511   1.397       .  A
C1510      H1514   1.086       .  S
C1511      C1512   1.401       .  A
C1511      C1659   1.438       .  S
C1512      H1515   1.084       .  S
C1516      C1517   1.405       .  A
C1516      C1521   1.405       .  A
C1516      C1658   1.441       .  S
C1517      C1518   1.401       .  A
C1517      H1522   1.084       .  S
C1518      C1519   1.397       .  A
C1518      C1662   1.438       .  S
C1519      C1520   1.397       .  A
C1519      H1523   1.086       .  S
C1520      C1521   1.401       .  A
C1520      C1656   1.438       .  S
C1521      H1524   1.084       .  S
C1525      C1526   1.405       .  A
C1525      C1530   1.405       .  A
C1525      C1653   1.441       .  S
C1526      C1527   1.401       .  A
C1526      H1531   1.084       .  S
C1527      C1528   1.397       .  A
C1527      C1655   1.438       .  S
C1528      C1529   1.397       .  A
C1528      H1532   1.086       .  S
C1529      C1530   1.401       .  A
C1529      C1652   1.438       .  S
C1530      H1533   1.084       .  S
C1534      C1535   1.405       .  A
C1534      C1539   1.405       .  A
C1534      C1649   1.441       .  S
C1535      C1536   1.401       .  A
C1535      H1540   1.084       .  S
C1536      C1537   1.397       .  A
C1536      C1660   1.438       .  S
C1537      C1538   1.397       .  A
C1537      H1541   1.086       .  S
C1538      C1539   1.401       .  A
C1538      C1651   1.438       .  S
C1539      H1542   1.084       .  S
C1543      C1544   1.405       .  A
C1543      C1548   1.405       .  A
C1543      C1648   1.441       .  S
C1544      C1545   1.401       .  A
C1544      H1549   1.084       .  S
C1545      C1546   1.397       .  A
C1545      C1643   1.438       .  S
C1546      C1547   1.397       .  A
C1546      H1550   1.086       .  S
C1547      C1548   1.401       .  A
C1547      C1645   1.438       .  S
C1548      H1551   1.084       .  S
C1552      C1553   1.405       .  A
C1552      C1557   1.405       .  A
C1552      C1642   1.441       .  S
C1553      C1554   1.401       .  A
C1553      H1558   1.084       .  S
C1554      C1555   1.397       .  A
C1554      C1646   1.438       .  S
C1555      C1556   1.397       .  A
C1555      H1559   1.086       .  S
C1556      C1557   1.401       .  A
C1556      C1640   1.438       .  S
C1557      H1560   1.084       .  S
C1561      C1562   1.405       .  A
C1561      C1566   1.405       .  A
C1561      C1637   1.441       .  S
C1562      C1563   1.401       .  A
C1562      H1567   1.084       .  S
C1563      C1564   1.397       .  A
C1563      C1644   1.438       .  S
C1564      C1565   1.397       .  A
C1564      H1568   1.086       .  S
C1565      C1566   1.401       .  A
C1565      C1635   1.438       .  S
C1566      H1569   1.084       .  S
C1570      C1571   1.405       .  A
C1570      C1575   1.405       .  A
C1570      C1633   1.441       .  S
C1571      C1572   1.401       .  A
C1571      H1576   1.084       .  S
C1572      C1573   1.397       .  A
C1572      C1639   1.438       .  S
C1573      C1574   1.397       .  A
C1573      H1577   1.086       .  S
C1574      C1575   1.401       .  A
C1574      C1636   1.438       .  S
C1575      H1578   1.084       .  S
O1579      C1590   1.290       .  A
O1580      C1591   1.290       .  A
O1581      C1592   1.290       .  A
O1581     Eu1587   2.461       .  S
O1582      C1593   1.290       .  A
O1583      C1593   1.290       .  A
O1584      C1592   1.290       .  A
O1585      C1591   1.290       .  A
O1585     Eu1587   2.461       .  S
O1586      C1590   1.290       .  A
Eu1587     O1595   2.354       .  S
C1590      C1680   1.437       .  S
C1591      C1673   1.437       .  S
C1592      C1650   1.437       .  S
C1593      C1664   1.437       .  S
H1594      O1595   0.965       .  S
H1596      O1597   0.965       .  S
O1598      C1621   1.290       .  A
O1598     Eu1614   2.461       .  S
O1599      C1622   1.290       .  A
O1599     Eu1615   2.461       .  S
O1600      C1623   1.290       .  A
O1600     Eu1616   2.461       .  S
O1601      C1624   1.290       .  A
O1601     Eu1617   2.461       .  S
O1602      C1625   1.290       .  A
O1603      C1626   1.290       .  A
O1604      C1627   1.290       .  A
O1604     Eu1618   2.461       .  S
O1605      C1628   1.290       .  A
O1606      C1627   1.290       .  A
O1606     Eu1616   2.461       .  S
O1607      C1628   1.290       .  A
O1607     Eu1617   2.461       .  S
O1608      C1623   1.290       .  A
O1608     Eu1614   2.461       .  S
O1609      C1626   1.290       .  A
O1609     Eu1615   2.461       .  S
O1610      C1625   1.290       .  A
O1611      C1624   1.290       .  A
O1612      C1621   1.290       .  A
O1612     Eu1618   2.461       .  S
O1613      C1622   1.290       .  A
Eu1614     O1620   2.354       .  S
Eu1615     O1630   2.354       .  S
Eu1616     O1620   2.354       .  S
Eu1617     O1632   2.354       .  S
Eu1618     O1620   2.354       .  S
C1621      C1669   1.437       .  S
C1622      C1666   1.437       .  S
C1623      C1638   1.437       .  S
C1624      C1647   1.437       .  S
C1625      C1641   1.437       .  S
C1626      C1634   1.437       .  S
C1627      C1654   1.437       .  S
C1628      C1657   1.437       .  S
H1629      O1630   0.965       .  S
H1631      O1632   0.965       .  S
C1633      C1634   1.207       .  T
C1635      C1636   1.205       .  T
C1637      C1638   1.207       .  T
C1639      C1640   1.205       .  T
C1641      C1642   1.207       .  T
C1643      C1644   1.205       .  T
C1645      C1646   1.205       .  T
C1647      C1648   1.207       .  T
C1649      C1650   1.207       .  T
C1651      C1652   1.205       .  T
C1653      C1654   1.207       .  T
C1655      C1656   1.205       .  T
C1657      C1658   1.207       .  T
C1659      C1660   1.205       .  T
C1661      C1662   1.205       .  T
C1663      C1664   1.207       .  T
C1665      C1666   1.207       .  T
C1667      C1668   1.205   1_556  T
C1669      C1670   1.207       .  T
C1671      C1672   1.205   1_556  T
C1673      C1674   1.207       .  T
C1675      C1676   1.205   1_554  T
C1677      C1678   1.205   1_556  T
C1679      C1680   1.207       .  T
