geometry optimzed in LAMMPS
_audit_creation_date              2020-12-01 
_audit_creation_method            'lammps2cif' 
_symmetry_space_group_name_H-M    'P1' 
_symmetry_Int_Tables_number       1 
_symmetry_cell_setting            triclinic 
loop_ 
_symmetry_equiv_pos_as_xyz 
  x,y,z 
_cell_length_a                    38.11151146 
_cell_length_b                    52.7323308987293 
_cell_length_c                    24.083513745924037 
_cell_angle_alpha                 92.5189058839806 
_cell_angle_beta                  89.3972253248743 
_cell_angle_gamma                 92.13174717212415 
loop_ 
_atom_site_label 
_atom_site_type_symbol 
_atom_site_fract_x 
_atom_site_fract_y 
_atom_site_fract_z 
_atom_site_charge 
O1          O  0.39403860  0.78323359  0.32919224    -0.57000
C2          C  0.37612294  0.78092366  0.17259825     0.75700
O3          O  0.29472539  0.82633544  0.27118026    -0.58100
C4          C  0.37486203  0.78190664  0.37220637     0.75600
C5          C  0.37535356  0.86086798  0.27904730     0.78000
Cd6        Cd  0.35263998  0.80730266  0.27408552     1.37500
O7          O  0.39775497  0.79186355  0.20615822    -0.57000
O8          O  0.37155953  0.84835780  0.23331782    -0.55800
C9          C  0.27696361  0.80557626  0.26971651     0.78000
O10         O  0.36970371  0.84852192  0.32227260    -0.58100
O11         O  0.34402143  0.78210378  0.18571568    -0.56600
O12         O  0.34550186  0.79214961  0.37023145    -0.56600
O13         O  0.29401254  0.78544598  0.26973927    -0.55800
O14         O  0.36574258  0.75714903  0.08700862    -0.57000
C15         C  0.38609732  0.76905123  0.42170014     0.75700
O16         O  0.46592413  0.72246579  0.52474250    -0.58100
C17         C  0.38751451  0.76761491  0.12087382     0.75600
C18         C  0.38556036  0.68966731  0.50739919     0.78000
Cd19       Cd  0.40885243  0.74281151  0.51813719     1.37500
O20         O  0.36703629  0.76761643  0.46487336    -0.57000
O21         O  0.39276302  0.69957224  0.05472407    -0.55800
C22         C  0.48584616  0.74125468  0.01680611     0.78000
O23         O  0.39097908  0.70218843  0.96617115    -0.58100
O24         O  0.41542536  0.75872783  0.42317821    -0.56600
O25         O  0.41955545  0.76610755  0.10770215    -0.56600
O26         O  0.46853720  0.76277164  0.51339348    -0.55800
N27         N  0.40385545  0.02779120  0.31048443    -0.02600
C28         C  0.38363805  0.04841203  0.31713487     0.00000
C29         C  0.35549228  0.04332589  0.35193679    -0.22900
C30         C  0.35838052  0.01876738  0.36753595    -0.23100
C31         C  0.38805285  0.00953282  0.34130719    -0.00100
H32         H  0.33498250  0.05609831  0.36439228     0.13600
H33         H  0.33984502  0.00835374  0.39308977     0.13700
N34         N  0.35617797  0.52306019  0.94797985    -0.02600
C35         C  0.36989985  0.54232194  0.91807655     0.00000
C36         C  0.39548993  0.53338203  0.88180367    -0.22900
C37         C  0.39747778  0.50779589  0.88956299    -0.23100
C38         C  0.37306927  0.50201633  0.93023451    -0.00100
H39         H  0.41177907  0.54442798  0.85402111     0.13600
H40         H  0.41514103  0.49488768  0.86848124     0.13700
O41         O  0.39338942  0.26622564  0.02807213    -0.57000
C42         C  0.38071769  0.27943912  0.37019319     0.75700
O43         O  0.39207692  0.34789966  0.00466511    -0.58100
C44         C  0.37844378  0.27793724  0.06805065     0.75600
C45         C  0.48110063  0.30821723  0.47274391     0.78000
Cd46       Cd  0.40268097  0.30381550  0.96966378     1.37500
O47         O  0.36118121  0.28172155  0.41276402    -0.57000
O48         O  0.46189704  0.28641844  0.97769142    -0.55800
C49         C  0.37487788  0.35408721  0.96290861     0.78000
O50         O  0.46106903  0.32651835  0.96621387    -0.58100
O51         O  0.41164468  0.28883324  0.37434664    -0.56600
O52         O  0.37412150  0.30134341  0.06247299    -0.56600
O53         O  0.36927520  0.33677141  0.92568958    -0.55800
O54         O  0.38770656  0.26263491  0.27692876    -0.57000
C55         C  0.36661064  0.26514348  0.11839704     0.75700
O56         O  0.33459478  0.19569830  0.18707984    -0.58100
C57         C  0.36793619  0.26651345  0.31871276     0.75600
C58         C  0.26544895  0.24199593  0.22023039     0.78000
Cd59       Cd  0.34144967  0.24069221  0.21812687     1.37500
O60         O  0.35080065  0.27696982  0.15728999    -0.57000
O61         O  0.28436606  0.25849451  0.19630914    -0.55800
C62         C  0.35780507  0.18742848  0.21811429     0.78000
O63         O  0.28139534  0.22481992  0.24350710    -0.58100
O64         O  0.37155710  0.24188902  0.12526928    -0.56600
O65         O  0.33637457  0.25862319  0.31404629    -0.56600
O66         O  0.37528358  0.20401685  0.24696427    -0.55800
O67         O  0.12086913  0.77893477  0.21255222    -0.57000
C68         C  0.13728768  0.77899964  0.36822756     0.75700
O69         O  0.22178816  0.82531127  0.27067356    -0.58100
C70         C  0.13769363  0.78092765  0.16737988     0.75600
C71         C  0.14534645  0.85787575  0.27780132     0.78000
Cd72       Cd  0.16269696  0.80485728  0.27071106     1.37500
O73         O  0.16467003  0.77242742  0.34228264    -0.57000
O74         O  0.12958311  0.84224853  0.24432928    -0.55800
C75         C  0.23848438  0.80503473  0.26893283     0.78000
O76         O  0.16722854  0.84865950  0.30977923    -0.58100
O77         O  0.12158206  0.79749383  0.34960062    -0.56600
O78         O  0.16581139  0.79439120  0.16923435    -0.56600
O79         O  0.22034353  0.78443017  0.26724562    -0.55800
O80         O  0.09625397  0.77193641  0.44186519    -0.57000
C81         C  0.12532992  0.76789596  0.11581646     0.75700
O82         O  0.04070999  0.72054557  0.01491889    -0.58100
C83         C  0.12447829  0.76597420  0.41760979     0.75600
C84         C  0.12313204  0.68869458  0.01656509     0.78000
Cd85       Cd  0.10055412  0.74105657  0.01567889     1.37500
O86         O  0.14225036  0.76926819  0.07053257    -0.57000
O87         O  0.12885471  0.70452839  0.05676184    -0.55800
C88         C  0.02314857  0.74219508  0.51860868     0.78000
O89         O  0.10777890  0.69714342  0.97512623    -0.58100
O90         O  0.09727160  0.75437511  0.11475655    -0.56600
O91         O  0.14108400  0.74838682  0.43832745    -0.56600
O92         O  0.04299272  0.76135872  0.01681909    -0.55800
N93         N  0.16593299  0.52660917  0.07845995    -0.02600
C94         C  0.15031863  0.50653226  0.10347084     0.00000
C95         C  0.12568817  0.51490738  0.14201053    -0.22900
C96         C  0.12634787  0.54100246  0.14078144    -0.23100
C97         C  0.15131374  0.54769205  0.10154491    -0.00100
H98         H  0.10846972  0.50326819  0.16724033     0.13600
H99         H  0.10997705  0.55370421  0.16514216     0.13700
O100        O  0.13902977  0.29909656  0.39806325    -0.57000
C101        C  0.11532170  0.28387565  0.07142179     0.75700
O102        O  0.11873024  0.34842601  0.03019304    -0.58100
C103        C  0.11849887  0.28400355  0.37055173     0.75600
C104        C  0.01749721  0.30870591  0.97425303     0.78000
Cd105      Cd  0.09557696  0.31050679  0.47399689     1.37500
O106        O  0.13223467  0.28301638  0.02587977    -0.57000
O107        O  0.03676792  0.29099598  0.48883979    -0.55800
C108        C  0.12183921  0.36315865  0.49153644     0.78000
O109        O  0.03740918  0.32850023  0.45690336    -0.58100
O110        O  0.08817109  0.29694323  0.07287800    -0.56600
O111        O  0.08793234  0.28100962  0.39050989    -0.56600
O112        O  0.10855198  0.35507291  0.94492801    -0.55800
O113        O  0.10902368  0.26976319  0.16470732    -0.57000
C114        C  0.12938703  0.27057618  0.31823787     0.75700
O115        O  0.12741890  0.20051142  0.24153348    -0.58100
C116        C  0.12685365  0.27050702  0.12010097     0.75600
C117        C  0.22696630  0.24268654  0.22018391     0.78000
Cd118      Cd  0.15119251  0.24367468  0.21500738     1.37500
O119        O  0.10943800  0.25422112  0.29301570    -0.57000
O120        O  0.21142324  0.26013284  0.19713975    -0.55800
C121        C  0.12950340  0.19041283  0.19297530     0.78000
O122        O  0.20767756  0.22584497  0.24245571    -0.58100
O123        O  0.15915160  0.27474455  0.29604655    -0.56600
O124        O  0.15545567  0.25918823  0.11950010    -0.56600
O125        O  0.13979351  0.20505464  0.15555629    -0.55800
N126        N  0.10027085  0.01958236  0.20439337    -0.02600
C127        C  0.12139703  0.99959985  0.19593283     0.00000
C128        C  0.15140502  0.00684852  0.16726987    -0.22900
C129        C  0.14878227  0.03220460  0.15779781    -0.23100
C130        C  0.11737126  0.03973244  0.18154742    -0.00100
H131        H  0.17319931  0.99508348  0.15564654     0.13600
H132        H  0.16869653  0.04419389  0.13864760     0.13700
C133        C  0.12202606  0.16291261  0.18029092    -0.04400
C134        C  0.12905520  0.15261252  0.12659654    -0.04300
C135        C  0.12623329  0.12644402  0.11504615    -0.22500
C136        C  0.11632200  0.10995420  0.15691609     0.19700
C137        C  0.10771243  0.12001554  0.21052511     0.17000
C138        C  0.11050720  0.14646965  0.22185218    -0.17500
C139        C  0.09800875  0.10331567  0.25233794    -0.19300
C140        C  0.09869234  0.07697492  0.24200720    -0.11900
C141        C  0.10872969  0.06688129  0.18948869     0.04800
C142        C  0.11653580  0.08355036  0.14674782    -0.24000
H143        H  0.13788208  0.16475811  0.09374294     0.09900
H144        H  0.13282767  0.11904626  0.07366784     0.13500
H145        H  0.10494192  0.15413499  0.26340523     0.13400
H146        H  0.09132537  0.11062156  0.29373574     0.13100
H147        H  0.09343096  0.06460926  0.27602093     0.13700
H148        H  0.12449541  0.07592101  0.10615170     0.15600
C149        C  0.13474042  0.38994085  0.50140555    -0.04400
C150        C  0.13873730  0.40628516  0.45700589    -0.04300
C151        C  0.14814494  0.43203102  0.46666633    -0.22500
C152        C  0.15305514  0.44207405  0.52107750     0.19700
C153        C  0.15055106  0.42559590  0.56586150     0.17000
C154        C  0.14074163  0.40033133  0.05493978    -0.17500
C155        C  0.15491986  0.43593944  0.11994398    -0.19300
C156        C  0.15788733  0.46213559  0.13149543    -0.11900
C157        C  0.15538759  0.47927488  0.08884838     0.04800
C158        C  0.15780703  0.46847772  0.53181678    -0.24000
H159        H  0.13386391  0.39926280  0.41475811     0.09900
H160        H  0.15015253  0.44428572  0.43173988     0.13500
H161        H  0.14071003  0.38752774  0.08894571     0.13400
H162        H  0.15596488  0.42321058  0.15394924     0.13100
H163        H  0.16074478  0.46911180  0.17425427     0.12900
H164        H  0.15758926  0.48124397  0.49775834     0.15600
C165        C  0.13265558  0.66162744  0.01885034    -0.04400
C166        C  0.10791682  0.64362978  0.48148668    -0.04300
C167        C  0.11158100  0.61753592  0.48586065    -0.22500
C168        C  0.13355121  0.60838806  0.52611335     0.19700
C169        C  0.15590771  0.62690346  0.07011434     0.17000
C170        C  0.15090312  0.65302330  0.06462963    -0.17500
C171        C  0.17188415  0.61809982  0.11752309    -0.19300
C172        C  0.17276226  0.59200842  0.12582280    -0.11900
C173        C  0.15860247  0.57427127  0.08622647     0.04800
C174        C  0.13495922  0.58218402  0.53368348    -0.24000
H175        H  0.08997329  0.65005250  0.45097253     0.09900
H176        H  0.09648980  0.60446794  0.45859237     0.13500
H177        H  0.15993212  0.66651880  0.09713067     0.13400
H178        H  0.18209354  0.63139554  0.14951120     0.13100
H179        H  0.18305312  0.58565057  0.16438172     0.13700
H180        H  0.11852343  0.56892091  0.50885193     0.15600
C181        C  0.14033691  0.88558267  0.27740948    -0.04400
C182        C  0.16513517  0.90236077  0.30364518    -0.04300
C183        C  0.16435503  0.92844259  0.29657013    -0.22500
C184        C  0.13864913  0.93828565  0.26336347     0.19700
C185        C  0.11221792  0.92186104  0.23940983     0.17000
C186        C  0.11324700  0.89554835  0.24658195    -0.17500
C187        C  0.08633218  0.93198519  0.20657616    -0.19300
C188        C  0.08785028  0.95782900  0.19503824    -0.11900
C189        C  0.11528477  0.97377427  0.21611432     0.04800
C190        C  0.13999194  0.96406908  0.25146523    -0.24000
H191        H  0.18621853  0.89520786  0.32761310     0.09900
H192        H  0.18463531  0.94083040  0.31552890     0.13500
H193        H  0.09385875  0.88279232  0.22641261     0.13400
H194        H  0.06570426  0.91975589  0.18816450     0.13100
H195        H  0.06871023  0.96510969  0.16750000     0.13700
H196        H  0.16116766  0.97646830  0.26779903     0.15600
C197        C  0.32431101  0.52326846  0.98034249    -0.04400
C198        C  0.32427238  0.51705089  0.03633309    -0.04300
C199        C  0.29282993  0.51604106  0.06678687    -0.22500
C200        C  0.26099965  0.52114521  0.04142045     0.19700
C201        C  0.26388991  0.52979058  0.48428169     0.17000
C202        C  0.29607359  0.53194543  0.45568168    -0.17500
C203        C  0.23317410  0.53870485  0.46154179    -0.19300
C204        C  0.20140252  0.53708982  0.49091781    -0.11900
C205        C  0.19774904  0.52611029  0.04620977     0.04800
C206        C  0.22932404  0.52045119  0.07163287    -0.24000
H207        H  0.34861822  0.51312646  0.05641182     0.09900
H208        H  0.29339694  0.51130823  0.11008664     0.13500
H209        H  0.29719866  0.54004372  0.41508704     0.13400
H210        H  0.23381946  0.54721593  0.42139352     0.13100
H211        H  0.17802847  0.54432248  0.47309336     0.13700
H212        H  0.22911132  0.51599942  0.11515415     0.15600
C213        C  0.36777272  0.47640135  0.95156813    -0.04400
C214        C  0.38417101  0.47048515  0.00091872    -0.04300
C215        C  0.38534701  0.44529079  0.01628482    -0.22500
C216        C  0.37071774  0.42560943  0.98181454     0.19700
C217        C  0.35768644  0.43339909  0.43837077     0.17000
C218        C  0.35576975  0.45880151  0.42364464    -0.17500
C219        C  0.34076943  0.41376036  0.40655966    -0.19300
C220        C  0.34597393  0.38838720  0.41791552    -0.11900
C221        C  0.36372081  0.38041808  0.95627217     0.04800
C222        C  0.37543453  0.40011223  0.99358536    -0.24000
H223        H  0.39755806  0.48526829  0.02619240     0.09900
H224        H  0.39911998  0.44110618  0.05373834     0.13500
H225        H  0.34103197  0.46347889  0.38744384     0.13400
H226        H  0.32467372  0.41798934  0.37155897     0.13100
H227        H  0.33392431  0.37357284  0.39110158     0.13700
H228        H  0.39015494  0.39569827  0.02998091     0.15600
C229        C  0.43712813  0.02650530  0.28154359    -0.04400
C230        C  0.44147722  0.03616148  0.22835986    -0.04300
C231        C  0.47445062  0.03661896  0.20220453    -0.22500
C232        C  0.00365897  0.02741932  0.22887474     0.19700
C233        C  0.49932753  0.01712010  0.28186159     0.17000
C234        C  0.46613086  0.01666770  0.30767344    -0.17500
C235        C  0.02840748  0.00782602  0.30858478    -0.19300
C236        C  0.06152947  0.00881520  0.28323330    -0.11900
C237        C  0.06618015  0.01910585  0.23080847     0.04800
C238        C  0.03712965  0.02843251  0.20377345    -0.24000
H239        H  0.41932016  0.04346267  0.20719633     0.09900
H240        H  0.47717478  0.04438684  0.16140783     0.13500
H241        H  0.46298099  0.00937690  0.34887026     0.13400
H242        H  0.02556727  0.99991167  0.34921996     0.13100
H243        H  0.08371710  0.00176459  0.30475727     0.13700
H244        H  0.04066945  0.03621635  0.16309590     0.15600
C245        C  0.38970797  0.07337317  0.29259149    -0.04400
C246        C  0.41689656  0.09002169  0.31183922    -0.04300
C247        C  0.41779352  0.11555410  0.29777753    -0.22500
C248        C  0.39150183  0.12470493  0.26425031     0.19700
C249        C  0.36520037  0.10757976  0.24231841     0.17000
C250        C  0.36447315  0.08208963  0.25675603    -0.17500
C251        C  0.33905377  0.11648454  0.20853527    -0.19300
C252        C  0.33786771  0.14231477  0.19859646    -0.11900
C253        C  0.36270355  0.15981366  0.22245441     0.04800
C254        C  0.39004985  0.15075790  0.25422732    -0.24000
H255        H  0.43626441  0.08357993  0.34009326     0.09900
H256        H  0.43827537  0.12833868  0.31480467     0.13500
H257        H  0.34328789  0.06922073  0.24227383     0.13400
H258        H  0.31883307  0.10356422  0.19113696     0.13100
H259        H  0.31658926  0.14873109  0.17395723     0.13700
H260        H  0.40944003  0.16404585  0.27272395     0.15600
C261        C  0.36303944  0.56968147  0.92696768    -0.04400
C262        C  0.36413807  0.58601232  0.38002667    -0.04300
C263        C  0.36520919  0.61245229  0.38698639    -0.22500
C264        C  0.36721463  0.62405894  0.44038220     0.19700
C265        C  0.36612649  0.60780580  0.98821690     0.17000
C266        C  0.36350546  0.58115889  0.98079339    -0.17500
C267        C  0.36970115  0.61946131  0.04147618    -0.19300
C268        C  0.37550523  0.64580561  0.04801166    -0.11900
C269        C  0.37636814  0.66211939  0.50075869     0.04800
C270        C  0.37207675  0.65054404  0.44740201    -0.24000
H271        H  0.36470213  0.57747061  0.33830598     0.09900
H272        H  0.36607428  0.62379561  0.35052437     0.13500
H273        H  0.36459989  0.56941867  0.01651846     0.13400
H274        H  0.36901650  0.60813912  0.07796244     0.13100
H275        H  0.37919942  0.65421366  0.08947335     0.13700
H276        H  0.37391520  0.66201498  0.41114446     0.15600
C277        C  0.38482366  0.88848480  0.28187408    -0.04400
C278        C  0.38999896  0.90176219  0.23290363    -0.04300
C279        C  0.39598432  0.92813658  0.23514326    -0.22500
C280        C  0.39648871  0.94182526  0.28640210     0.19700
C281        C  0.39228462  0.92861293  0.33603781     0.17000
C282        C  0.38684461  0.90205417  0.33348874    -0.17500
C283        C  0.39182588  0.94231837  0.38725920    -0.19300
C284        C  0.39319364  0.96886470  0.38902904    -0.11900
C285        C  0.39590834  0.98219441  0.33982598     0.04800
C286        C  0.39895068  0.96855283  0.28868396    -0.24000
H287        H  0.38865181  0.89180862  0.19264019     0.09900
H288        H  0.39910187  0.93791496  0.19666732     0.13500
H289        H  0.38284291  0.89210032  0.37160882     0.13400
H290        H  0.38867564  0.93255403  0.42575179     0.13100
H291        H  0.39052950  0.97906902  0.42879992     0.13700
H292        H  0.40024936  0.97869563  0.25049157     0.15600
O293        O  0.39574483  0.78665137  0.83388968    -0.57000
C294        C  0.37500573  0.78131784  0.67341279     0.75700
O295        O  0.29443494  0.82706067  0.77726762    -0.58100
C296        C  0.37479037  0.78102604  0.87285921     0.75600
C297        C  0.37382692  0.86078098  0.78210098     0.78000
Cd298      Cd  0.35197444  0.80709871  0.77592676     1.37500
O299        O  0.39632219  0.79420830  0.70428558    -0.57000
O300        O  0.37095556  0.84825243  0.73620935    -0.55800
C301        C  0.27638792  0.80654131  0.77067176     0.78000
O302        O  0.36735321  0.84844258  0.82514235    -0.58100
O303        O  0.34342301  0.78018298  0.68976162    -0.56600
O304        O  0.34334942  0.78712251  0.86721626    -0.56600
O305        O  0.29311391  0.78627809  0.76613762    -0.55800
O306        O  0.36487940  0.75541416  0.59051672    -0.57000
C307        C  0.38640050  0.76808466  0.92199826     0.75700
O308        O  0.46714260  0.72098345  0.01892585    -0.58100
C309        C  0.38622336  0.76836368  0.62120696     0.75600
C310        C  0.38709277  0.68851488  0.00778789     0.78000
Cd311      Cd  0.40998221  0.74172054  0.01783786     1.37500
O312        O  0.36556472  0.76242413  0.96113448    -0.57000
O313        O  0.39361030  0.70020965  0.55397874    -0.55800
C314        C  0.48465140  0.74250338  0.51902577     0.78000
O315        O  0.38693155  0.70387700  0.46642003    -0.58100
O316        O  0.41787699  0.76198423  0.92729143    -0.56600
O317        O  0.41774398  0.76963530  0.60452836    -0.56600
O318        O  0.46968083  0.76176072  0.01540749    -0.55800
N319        N  0.39951343  0.02782994  0.81167164    -0.02600
C320        C  0.37877502  0.04823882  0.81668291     0.00000
C321        C  0.35011616  0.04304916  0.85035248    -0.22900
C322        C  0.35321739  0.01864574  0.86690649    -0.23100
C323        C  0.38354603  0.00959141  0.84237346    -0.00100
H324        H  0.32915857  0.05565447  0.86149014     0.13600
H325        H  0.33440383  0.00818395  0.89188657     0.13700
N326        N  0.35917422  0.52390790  0.44700797    -0.02600
C327        C  0.37261923  0.54353595  0.41779327     0.00000
C328        C  0.40017386  0.53554450  0.38430356    -0.22900
C329        C  0.40398754  0.51026084  0.39336377    -0.23100
C330        C  0.37859129  0.50366339  0.43185758    -0.00100
H331        H  0.41674202  0.54713515  0.35797992     0.13600
H332        H  0.42351285  0.49810363  0.37465163     0.13700
O333        O  0.39366522  0.26714238  0.52862332    -0.57000
C334        C  0.37791140  0.27830732  0.86824988     0.75700
O335        O  0.39770491  0.34950038  0.50682201    -0.58100
C336        C  0.37931934  0.27883684  0.56922428     0.75600
C337        C  0.47895371  0.30719609  0.97273494     0.78000
Cd338      Cd  0.40488831  0.30509672  0.47189325     1.37500
O339        O  0.35892562  0.27976636  0.91161932    -0.57000
O340        O  0.46379814  0.28850905  0.48627601    -0.55800
C341        C  0.37816388  0.35568464  0.46776038     0.78000
O342        O  0.46346522  0.32674287  0.45914392    -0.58100
O343        O  0.40853114  0.28833484  0.87163078    -0.56600
O344        O  0.37682893  0.30254145  0.56529868    -0.56600
O345        O  0.36950306  0.33815671  0.43244352    -0.55800
O346        O  0.38433049  0.26259798  0.77415490    -0.57000
C347        C  0.36594909  0.26563886  0.61825430     0.75700
O348        O  0.33189500  0.19535005  0.68295816    -0.58100
C349        C  0.36492327  0.26562642  0.81665555     0.75600
C350        C  0.26245284  0.24208734  0.71867407     0.78000
Cd351      Cd  0.33845204  0.24031923  0.71564325     1.37500
O352        O  0.35075289  0.27744505  0.65787264    -0.57000
O353        O  0.28120802  0.25731560  0.69087259    -0.55800
C354        C  0.35474398  0.18699805  0.71454800     0.78000
O355        O  0.27853270  0.22596166  0.74498648    -0.58100
O356        O  0.36875872  0.24198540  0.62304179    -0.56600
O357        O  0.33360391  0.25713473  0.81254132    -0.56600
O358        O  0.37185237  0.20351970  0.74410068    -0.55800
O359        O  0.12099443  0.77906515  0.71391079    -0.57000
C360        C  0.13765885  0.78034797  0.86881353     0.75700
O361        O  0.22140452  0.82662288  0.77156829    -0.58100
C362        C  0.13708375  0.78151971  0.66821930     0.75600
C363        C  0.14438751  0.85912843  0.77672478     0.78000
Cd364      Cd  0.16218296  0.80616753  0.77082684     1.37500
O365        O  0.16575157  0.77470840  0.84379047    -0.57000
O366        O  0.12853966  0.84328471  0.74383937    -0.55800
C367        C  0.23793892  0.80627001  0.76928201     0.78000
O368        O  0.16649364  0.85015105  0.80866305    -0.58100
O369        O  0.12081485  0.79810484  0.84930121    -0.56600
O370        O  0.16457246  0.79568775  0.66925440    -0.56600
O371        O  0.21965640  0.78573930  0.76655784    -0.55800
O372        O  0.09632253  0.77170913  0.94123371    -0.57000
C373        C  0.12452548  0.76832680  0.61692113     0.75700
O374        O  0.03923776  0.72179825  0.52211541    -0.58100
C375        C  0.12526975  0.76691964  0.91788336     0.75600
C376        C  0.11870930  0.68864553  0.51593713     0.78000
Cd377      Cd  0.09917065  0.74154061  0.51689055     1.37500
O378        O  0.14091533  0.76997019  0.57123974    -0.57000
O379        O  0.12985907  0.70471601  0.55283588    -0.55800
C380        C  0.02438972  0.74102199  0.01612618     0.78000
O381        O  0.09986687  0.69722676  0.47853497    -0.58100
O382        O  0.09677042  0.75447481  0.61641818    -0.56600
O383        O  0.14290642  0.74996746  0.93896606    -0.56600
O384        O  0.04193635  0.76228727  0.51443752    -0.55800
N385        N  0.16757567  0.52600482  0.57474677    -0.02600
C386        C  0.15183181  0.50577071  0.59916675     0.00000
C387        C  0.12394994  0.51363955  0.63207314    -0.22900
C388        C  0.12244266  0.53948535  0.62766865    -0.23100
C389        C  0.14948862  0.54659114  0.59243423    -0.00100
H390        H  0.10573001  0.50170913  0.65493664     0.13600
H391        H  0.10330712  0.55172495  0.64720843     0.13700
O392        O  0.13801352  0.29705295  0.90368546    -0.57000
C393        C  0.11669537  0.28429154  0.57108544     0.75700
O394        O  0.12093229  0.34748050  0.52976231    -0.58100
C395        C  0.11613287  0.28571052  0.87110201     0.75600
C396        C  0.01964364  0.30934359  0.47282398     0.78000
Cd397      Cd  0.09350636  0.31104648  0.97567824     1.37500
O398        O  0.13512114  0.28407968  0.52697123    -0.57000
O399        O  0.03508521  0.28946502  0.98325926    -0.55800
C400        C  0.11937573  0.36393253  0.99163938     0.78000
O401        O  0.03480731  0.32920845  0.96641242    -0.58100
O402        O  0.08866496  0.29630737  0.57029900    -0.56600
O403        O  0.08432418  0.28634072  0.88609422    -0.56600
O404        O  0.11063352  0.35466736  0.44475553    -0.55800
O405        O  0.10778767  0.26995564  0.66353776    -0.57000
C406        C  0.12688706  0.27215870  0.81894049     0.75700
O407        O  0.12610428  0.20087358  0.74457307    -0.58100
C408        C  0.12722996  0.27123814  0.62068572     0.75600
C409        C  0.22400355  0.24297827  0.71972264     0.78000
Cd410      Cd  0.14841947  0.24426511  0.71679615     1.37500
O411        O  0.10489983  0.26009269  0.78770756    -0.57000
O412        O  0.20833955  0.26014936  0.69590281    -0.55800
C413        C  0.12490882  0.19127933  0.69547773     0.78000
O414        O  0.20488513  0.22657674  0.74382154    -0.58100
O415        O  0.15860336  0.27167117  0.80319769    -0.56600
O416        O  0.15631631  0.26063253  0.62262153    -0.56600
O417        O  0.13273581  0.20629517  0.65754052    -0.55800
N418        N  0.09581561  0.02048588  0.70443745    -0.02600
C419        C  0.11734604  0.00075829  0.69560987     0.00000
C420        C  0.14699887  0.00836852  0.66644603    -0.22900
C421        C  0.14370967  0.03367377  0.65701490    -0.23100
C422        C  0.11228432  0.04081382  0.68128935    -0.00100
H423        H  0.16901113  0.99687988  0.65447239     0.13600
H424        H  0.16323500  0.04591344  0.63765655     0.13700
C425        C  0.11660984  0.16391352  0.68251820    -0.04400
C426        C  0.12167732  0.15389648  0.62800584    -0.04300
C427        C  0.11833308  0.12778171  0.61591025    -0.22500
C428        C  0.10978201  0.11107973  0.65802549     0.19700
C429        C  0.10293821  0.12090005  0.71249995     0.17000
C430        C  0.10633698  0.14728546  0.72440340    -0.17500
C431        C  0.09445671  0.10401902  0.75451154    -0.19300
C432        C  0.09478751  0.07771877  0.74345958    -0.11900
C433        C  0.10333401  0.06785374  0.69008508     0.04800
C434        C  0.10975388  0.08469883  0.64720105    -0.24000
H435        H  0.12950483  0.16620316  0.59488766     0.09900
H436        H  0.12352501  0.12058457  0.57386197     0.13500
H437        H  0.10222870  0.15474681  0.76656067     0.13400
H438        H  0.08908433  0.11114504  0.79653810     0.13100
H439        H  0.09057175  0.06518368  0.77747029     0.13700
H440        H  0.11658602  0.07722386  0.60594695     0.15600
C441        C  0.13129294  0.39096317  0.00128080    -0.04400
C442        C  0.13165414  0.40789728  0.95774114    -0.04300
C443        C  0.13983879  0.43381796  0.96785126    -0.22500
C444        C  0.14731199  0.44340636  0.02190759     0.19700
C445        C  0.14830716  0.42640429  0.06563285     0.17000
C446        C  0.14190899  0.39963617  0.55569235    -0.17500
C447        C  0.15458379  0.43562534  0.62040263    -0.19300
C448        C  0.15800574  0.46187756  0.63077227    -0.11900
C449        C  0.15850582  0.47855351  0.58685974     0.04800
C450        C  0.15158902  0.46977595  0.03364679    -0.24000
H451        H  0.12477861  0.40119774  0.91597558     0.09900
H452        H  0.13905482  0.44649774  0.93372555     0.13500
H453        H  0.13910417  0.38726092  0.59036033     0.13400
H454        H  0.15297025  0.42330643  0.65524673     0.13100
H455        H  0.15839557  0.46930549  0.67343637     0.12900
H456        H  0.14907337  0.48290657  0.00065126     0.15600
C457        C  0.12602445  0.66118862  0.51740913    -0.04400
C458        C  0.12137031  0.64382143  0.97701495    -0.04300
C459        C  0.12649523  0.61787175  0.98195554    -0.22500
C460        C  0.14292766  0.60912855  0.02892526     0.19700
C461        C  0.15311434  0.62577049  0.56112131     0.17000
C462        C  0.14919944  0.65208713  0.55658808    -0.17500
C463        C  0.17506090  0.61642213  0.60145938    -0.19300
C464        C  0.17608410  0.59023652  0.60895142    -0.11900
C465        C  0.15555220  0.57304087  0.57581736     0.04800
C466        C  0.14470992  0.58292105  0.03701173    -0.24000
H467        H  0.10745028  0.64987110  0.94123829     0.09900
H468        H  0.11649026  0.60454403  0.94985715     0.13500
H469        H  0.16340704  0.66540182  0.58450074     0.13400
H470        H  0.19033792  0.62939340  0.62865627     0.13100
H471        H  0.19154327  0.58346177  0.64236324     0.13700
H472        H  0.13285680  0.56931523  0.00706218     0.15600
C473        C  0.13919791  0.88680431  0.77582384    -0.04400
C474        C  0.16422646  0.90374128  0.80099667    -0.04300
C475        C  0.16306417  0.92979348  0.79382036    -0.22500
C476        C  0.13669665  0.93946894  0.76166215     0.19700
C477        C  0.11008627  0.92288654  0.73874864     0.17000
C478        C  0.11156848  0.89658140  0.74585156    -0.17500
C479        C  0.08346820  0.93287386  0.70715427    -0.19300
C480        C  0.08437866  0.95874575  0.69582838    -0.11900
C481        C  0.11196547  0.97485700  0.71579174     0.04800
C482        C  0.13746947  0.96526447  0.74988764    -0.24000
H483        H  0.18573030  0.89673804  0.82427069     0.09900
H484        H  0.18348968  0.94230251  0.81199181     0.13500
H485        H  0.09200469  0.88370257  0.72649730     0.13400
H486        H  0.06267451  0.92053141  0.68959355     0.13100
H487        H  0.06461529  0.96592634  0.66926150     0.13700
H488        H  0.15876018  0.97778118  0.76539524     0.15600
C489        C  0.32685977  0.52318615  0.47864670    -0.04400
C490        C  0.32519564  0.51235729  0.53089037    -0.04300
C491        C  0.29321704  0.50998269  0.55957264    -0.22500
C492        C  0.26239443  0.51861380  0.53660756     0.19700
C493        C  0.26088080  0.52731030  0.98485513     0.17000
C494        C  0.29258080  0.52837794  0.95479480    -0.17500
C495        C  0.22906870  0.53238415  0.95941557    -0.19300
C496        C  0.19771585  0.53191381  0.99007091    -0.11900
C497        C  0.19973987  0.52622515  0.54300440     0.04800
C498        C  0.23021580  0.51666988  0.56536307    -0.24000
H499        H  0.34869335  0.50584040  0.54960396     0.09900
H500        H  0.29262298  0.50151461  0.59977408     0.13500
H501        H  0.29271366  0.53285085  0.91129242     0.13400
H502        H  0.22850573  0.53695889  0.91602467     0.13100
H503        H  0.17339421  0.53605334  0.97014620     0.13700
H504        H  0.22893063  0.50845295  0.60583714     0.15600
C505        C  0.37479259  0.47805200  0.45351243    -0.04400
C506        C  0.39470380  0.47203211  0.49937743    -0.04300
C507        C  0.39615041  0.44692566  0.51506090    -0.22500
C508        C  0.37844153  0.42739345  0.48402670     0.19700
C509        C  0.35305825  0.43153116  0.93292271     0.17000
C510        C  0.35155049  0.45696528  0.91824457    -0.17500
C511        C  0.33908288  0.41181121  0.89794114    -0.19300
C512        C  0.34456915  0.38648314  0.90933252    -0.11900
C513        C  0.36780090  0.38221972  0.46171563     0.04800
C514        C  0.38286678  0.40189863  0.49591124    -0.24000
H515        H  0.41003337  0.48673269  0.52197386     0.09900
H516        H  0.41229889  0.44266509  0.54997222     0.13500
H517        H  0.33947303  0.46155939  0.87955329     0.13400
H518        H  0.32527014  0.41598146  0.86050982     0.13100
H519        H  0.33499853  0.37166203  0.88015856     0.13700
H520        H  0.39978045  0.39740599  0.52975394     0.15600
C521        C  0.43282473  0.02654615  0.78282671    -0.04400
C522        C  0.43691054  0.03583988  0.72928499    -0.04300
C523        C  0.46977785  0.03634809  0.70291326    -0.22500
C524        C  0.99916818  0.02749823  0.72964069     0.19700
C525        C  0.49514652  0.01742200  0.78289844     0.17000
C526        C  0.46201240  0.01697423  0.80905096    -0.17500
C527        C  0.02446677  0.00835627  0.80945107    -0.19300
C528        C  0.05750392  0.00944556  0.78371852    -0.11900
C529        C  0.06182189  0.01966809  0.73115774     0.04800
C530        C  0.03252692  0.02866784  0.70425495    -0.24000
H531        H  0.41459974  0.04283052  0.70797526     0.09900
H532        H  0.47227044  0.04388294  0.66186455     0.13500
H533        H  0.45904662  0.00987880  0.85045235     0.13400
H534        H  0.02188613  0.00056163  0.85023616     0.13100
H535        H  0.07988159  0.00258285  0.80508274     0.13700
H536        H  0.03580319  0.03634957  0.66343183     0.15600
C537        C  0.38511146  0.07320666  0.79217755    -0.04400
C538        C  0.41166232  0.09002227  0.81295821    -0.04300
C539        C  0.41280536  0.11549945  0.79854985    -0.22500
C540        C  0.38743289  0.12444232  0.76305312     0.19700
C541        C  0.36183234  0.10717616  0.73958053     0.17000
C542        C  0.36080498  0.08171986  0.75446706    -0.17500
C543        C  0.33663941  0.11593250  0.70379394    -0.19300
C544        C  0.33560684  0.14175730  0.69348211    -0.11900
C545        C  0.35967116  0.15937704  0.71890912     0.04800
C546        C  0.38616685  0.15044843  0.75257707    -0.24000
H547        H  0.43030253  0.08374705  0.84260251     0.09900
H548        H  0.43273539  0.12840805  0.81677846     0.13500
H549        H  0.34011233  0.06872526  0.73874302     0.13400
H550        H  0.31698500  0.10290920  0.68514097     0.13100
H551        H  0.31500171  0.14807521  0.66733781     0.13700
H552        H  0.40496490  0.16382182  0.77230893     0.15600
C553        C  0.36442745  0.57067680  0.42622931    -0.04400
C554        C  0.36250082  0.58507461  0.88088300    -0.04300
C555        C  0.36422789  0.61150403  0.88794151    -0.22500
C556        C  0.36713477  0.62304295  0.94129658     0.19700
C557        C  0.36596394  0.60883896  0.48734169     0.17000
C558        C  0.36397007  0.58218223  0.47998701    -0.17500
C559        C  0.36876610  0.62053204  0.54065196    -0.19300
C560        C  0.37410234  0.64690375  0.54726171    -0.11900
C561        C  0.37760055  0.66100589  0.00147190     0.04800
C562        C  0.37259582  0.64947147  0.94823821    -0.24000
H563        H  0.36222595  0.57657284  0.83911337     0.09900
H564        H  0.36483289  0.62287812  0.85152798     0.13500
H565        H  0.36493749  0.57047925  0.51579625     0.13400
H566        H  0.36789545  0.60922175  0.57715683     0.13100
H567        H  0.37723673  0.65534163  0.58880893     0.13700
H568        H  0.37416826  0.66093924  0.91196021     0.15600
C569        C  0.38318357  0.88842165  0.78514894    -0.04400
C570        C  0.38928181  0.90158379  0.73623776    -0.04300
C571        C  0.39493437  0.92797835  0.73833270    -0.22500
C572        C  0.39419372  0.94181287  0.78936452     0.19700
C573        C  0.38921543  0.92873220  0.83903866     0.17000
C574        C  0.38413784  0.90213164  0.83667298    -0.17500
C575        C  0.38753978  0.94260787  0.88997445    -0.19300
C576        C  0.38840615  0.96915988  0.89127028    -0.11900
C577        C  0.39185381  0.98233477  0.84191580     0.04800
C578        C  0.39613327  0.96854257  0.79122345    -0.24000
H579        H  0.38884437  0.89152378  0.69605632     0.09900
H580        H  0.39870533  0.93765633  0.69984076     0.13500
H581        H  0.37949108  0.89226067  0.87475210     0.13400
H582        H  0.38379259  0.93295677  0.92850813     0.13100
H583        H  0.38478416  0.97946940  0.93070434     0.13700
H584        H  0.39797519  0.97853622  0.75286545     0.15600
O585        O  0.89403464  0.78322746  0.32918874    -0.57000
C586        C  0.87612365  0.78092165  0.17259831     0.75700
O587        O  0.79472502  0.82633400  0.27117243    -0.58100
C588        C  0.87486050  0.78190458  0.37220631     0.75600
C589        C  0.87535429  0.86086557  0.27904485     0.78000
Cd590      Cd  0.85263923  0.80730053  0.27408443     1.37500
O591        O  0.89775483  0.79186629  0.20615300    -0.57000
O592        O  0.87155893  0.84835530  0.23331571    -0.55800
C593        C  0.77696277  0.80557504  0.26971176     0.78000
O594        O  0.86970496  0.84851972  0.32227064    -0.58100
O595        O  0.84402238  0.78209684  0.18572073    -0.56600
O596        O  0.84550317  0.79215176  0.37023459    -0.56600
O597        O  0.79401122  0.78544466  0.26973889    -0.55800
O598        O  0.86574449  0.75714245  0.08701428    -0.57000
C599        C  0.88609539  0.76904914  0.42170039     0.75700
O600        O  0.96592276  0.72246638  0.52475619    -0.58100
C601        C  0.88751580  0.76761319  0.12087402     0.75600
C602        C  0.88555997  0.68966575  0.50740181     0.78000
Cd603      Cd  0.90885048  0.74281040  0.51813894     1.37500
O604        O  0.86703643  0.76761787  0.46487664    -0.57000
O605        O  0.89276701  0.69957062  0.05472402    -0.55800
C606        C  0.98584834  0.74125409  0.01680862     0.78000
O607        O  0.89098128  0.70218720  0.96617131    -0.58100
O608        O  0.91542108  0.75872227  0.42317576    -0.56600
O609        O  0.91955655  0.76611102  0.10769686    -0.56600
O610        O  0.96853507  0.76277047  0.51338520    -0.55800
N611        N  0.90385532  0.02778904  0.31047643    -0.02600
C612        C  0.88363689  0.04840937  0.31712598     0.00000
C613        C  0.85549074  0.04332255  0.35192669    -0.22900
C614        C  0.85837983  0.01876414  0.36752601    -0.23100
C615        C  0.88805306  0.00953032  0.34129866    -0.00100
H616        H  0.83498023  0.05609451  0.36438147     0.13600
H617        H  0.83984441  0.00835007  0.39307921     0.13700
N618        N  0.85617922  0.52305849  0.94797664    -0.02600
C619        C  0.86990224  0.54232074  0.91807584     0.00000
C620        C  0.89549546  0.53338170  0.88180765    -0.22900
C621        C  0.89748442  0.50779571  0.88956773    -0.23100
C622        C  0.87307329  0.50201529  0.93023474    -0.00100
H623        H  0.91178632  0.54442826  0.85402852     0.13600
H624        H  0.91515037  0.49488819  0.86848998     0.13700
O625        O  0.89339822  0.26622560  0.02808022    -0.57000
C626        C  0.88071842  0.27943577  0.37019575     0.75700
O627        O  0.89207985  0.34789858  0.00466835    -0.58100
C628        C  0.87844350  0.27793559  0.06805200     0.75600
C629        C  0.98110094  0.30821619  0.47274547     0.78000
Cd630      Cd  0.90268026  0.30381421  0.96966536     1.37500
O631        O  0.86118309  0.28171608  0.41276836    -0.57000
O632        O  0.96189702  0.28641892  0.97769849    -0.55800
C633        C  0.87487824  0.35408633  0.96291464     0.78000
O634        O  0.96106773  0.32651791  0.96620972    -0.58100
O635        O  0.91164429  0.28883213  0.37434712    -0.56600
O636        O  0.87411210  0.30134017  0.06246765    -0.56600
O637        O  0.86927257  0.33677054  0.92569657    -0.55800
O638        O  0.88770599  0.26263479  0.27692872    -0.57000
C639        C  0.86661043  0.26514180  0.11839834     0.75700
O640        O  0.83459643  0.19569741  0.18707450    -0.58100
C641        C  0.86793680  0.26651027  0.31871537     0.75600
C642        C  0.76544922  0.24199442  0.22023247     0.78000
Cd643      Cd  0.84144990  0.24069051  0.21812838     1.37500
O644        O  0.85079132  0.27696628  0.15728412    -0.57000
O645        O  0.78436666  0.25849634  0.19632231    -0.55800
C646        C  0.85780462  0.18742686  0.21811192     0.78000
O647        O  0.78139526  0.22481488  0.24349768    -0.58100
O648        O  0.87156607  0.24188919  0.12527775    -0.56600
O649        O  0.83637617  0.25861743  0.31405125    -0.56600
O650        O  0.87528124  0.20401451  0.24696672    -0.55800
O651        O  0.62086716  0.77893590  0.21254613    -0.57000
C652        C  0.63728789  0.77899848  0.36822251     0.75700
O653        O  0.72178761  0.82531046  0.27066436    -0.58100
C654        C  0.63769228  0.78092808  0.16737416     0.75600
C655        C  0.64534616  0.85787498  0.27779894     0.78000
Cd656      Cd  0.66269628  0.80485661  0.27070586     1.37500
O657        O  0.66467004  0.77242637  0.34227688    -0.57000
O658        O  0.62958217  0.84224803  0.24432711    -0.55800
C659        C  0.73848357  0.80503381  0.26892717     0.78000
O660        O  0.66722888  0.84865850  0.30977541    -0.58100
O661        O  0.62158192  0.79749259  0.34959592    -0.56600
O662        O  0.66581101  0.79439051  0.16922916    -0.56600
O663        O  0.72034251  0.78442935  0.26724308    -0.55800
O664        O  0.59625403  0.77193443  0.44185945    -0.57000
C665        C  0.62532826  0.76789660  0.11581076     0.75700
O666        O  0.54070771  0.72054590  0.01491355    -0.58100
C667        C  0.62447907  0.76597310  0.41760519     0.75600
C668        C  0.62313012  0.68869500  0.01656021     0.78000
Cd669      Cd  0.60055193  0.74105686  0.01567423     1.37500
O670        O  0.64224898  0.76926826  0.07052701    -0.57000
O671        O  0.62885088  0.70452816  0.05675878    -0.55800
C672        C  0.52315022  0.74219482  0.51860520     0.78000
O673        O  0.60777852  0.69714437  0.97512054    -0.58100
O674        O  0.59726944  0.75437631  0.11475091    -0.56600
O675        O  0.64108599  0.74838676  0.43832457    -0.56600
O676        O  0.54299062  0.76135909  0.01681617    -0.55800
N677        N  0.66593214  0.52660870  0.07845030    -0.02600
C678        C  0.65031592  0.50653209  0.10345990     0.00000
C679        C  0.62568302  0.51490766  0.14199506    -0.22900
C680        C  0.62634304  0.54100269  0.14076461    -0.23100
C681        C  0.65131153  0.54769181  0.10153178    -0.00100
H682        H  0.60846269  0.50326877  0.16722259     0.13600
H683        H  0.60997074  0.55370470  0.16512188     0.13700
O684        O  0.63903050  0.29909493  0.39806863    -0.57000
C685        C  0.61532209  0.28387369  0.07142372     0.75700
O686        O  0.61873124  0.34842430  0.03019297    -0.58100
C687        C  0.61849890  0.28400331  0.37055489     0.75600
C688        C  0.51749783  0.30870493  0.97425282     0.78000
Cd689      Cd  0.59557648  0.31050714  0.47399942     1.37500
O690        O  0.63223723  0.28301659  0.02588363    -0.57000
O691        O  0.53676708  0.29099649  0.48883978    -0.55800
C692        C  0.62183716  0.36315969  0.49154095     0.78000
O693        O  0.53740935  0.32850087  0.45690382    -0.58100
O694        O  0.58816923  0.29693889  0.07287770    -0.56600
O695        O  0.58793137  0.28101118  0.39051029    -0.56600
O696        O  0.60855039  0.35507073  0.94492841    -0.55800
O697        O  0.60902261  0.26975993  0.16470794    -0.57000
C698        C  0.62938733  0.27057557  0.31824156     0.75700
O699        O  0.62742126  0.20051038  0.24153759    -0.58100
C700        C  0.62685416  0.27050547  0.12010341     0.75600
C701        C  0.72696659  0.24268530  0.22018631     0.78000
Cd702      Cd  0.65119291  0.24367387  0.21501092     1.37500
O703        O  0.60943716  0.25422211  0.29301676    -0.57000
O704        O  0.71142371  0.26013392  0.19714986    -0.55800
C705        C  0.62950504  0.19041195  0.19297914     0.78000
O706        O  0.70767768  0.22584169  0.24245082    -0.58100
O707        O  0.65915326  0.27474200  0.29605326    -0.56600
O708        O  0.65545790  0.25918887  0.11950498    -0.56600
O709        O  0.63979379  0.20505398  0.15555970    -0.55800
N710        N  0.60026960  0.01958166  0.20439542    -0.02600
C711        C  0.62139539  0.99959898  0.19593445     0.00000
C712        C  0.65140329  0.00684732  0.16727090    -0.22900
C713        C  0.64878092  0.03220339  0.15779885    -0.23100
C714        C  0.61737026  0.03973155  0.18154909    -0.00100
H715        H  0.67319734  0.99508208  0.15564747     0.13600
H716        H  0.66869537  0.04419252  0.13864845     0.13700
C717        C  0.62202811  0.16291172  0.18029483    -0.04400
C718        C  0.62905648  0.15261172  0.12660013    -0.04300
C719        C  0.62623399  0.12644327  0.11504940    -0.22500
C720        C  0.61632301  0.10995343  0.15691948     0.19700
C721        C  0.60771462  0.12001467  0.21052900     0.17000
C722        C  0.61050989  0.14646873  0.22185638    -0.17500
C723        C  0.59801127  0.10331480  0.25234199    -0.19300
C724        C  0.59869373  0.07697405  0.24201050    -0.11900
C725        C  0.60872970  0.06688050  0.18949133     0.04800
C726        C  0.61653582  0.08354961  0.14675055    -0.24000
H727        H  0.63788296  0.16475737  0.09374636     0.09900
H728        H  0.63282748  0.11904556  0.07367078     0.13500
H729        H  0.60494524  0.15413399  0.26340963     0.13400
H730        H  0.59132889  0.11062059  0.29374017     0.13100
H731        H  0.59343252  0.06460828  0.27602413     0.13700
H732        H  0.62449450  0.07592028  0.10615404     0.15600
C733        C  0.63473798  0.38994209  0.50141052    -0.04400
C734        C  0.63873179  0.40628720  0.45701180    -0.04300
C735        C  0.64813962  0.43203302  0.46667285    -0.22500
C736        C  0.65305339  0.44207521  0.52108393     0.19700
C737        C  0.65055232  0.42559634  0.56586681     0.17000
C738        C  0.64073911  0.40033055  0.05493769    -0.17500
C739        C  0.65491560  0.43593975  0.11993971    -0.19300
C740        C  0.65788325  0.46213604  0.13148892    -0.11900
C741        C  0.65538518  0.47927453  0.08883994     0.04800
C742        C  0.65780610  0.46847876  0.53182455    -0.24000
H743        H  0.63385584  0.39926551  0.41476423     0.09900
H744        H  0.65014483  0.44428827  0.43174727     0.13500
H745        H  0.64070645  0.38752761  0.08894495     0.13400
H746        H  0.65595928  0.42321156  0.15394642     0.13100
H747        H  0.66073944  0.46911301  0.17424737     0.12900
H748        H  0.65758605  0.48124558  0.49776738     0.15600
C749        C  0.63265404  0.66162793  0.01884389    -0.04400
C750        C  0.60792261  0.64362835  0.48149097    -0.04300
C751        C  0.61158844  0.61753465  0.48586585    -0.22500
C752        C  0.63355478  0.60838771  0.52612506     0.19700
C753        C  0.65590743  0.62690337  0.07010451     0.17000
C754        C  0.65090265  0.65302331  0.06462161    -0.17500
C755        C  0.67188529  0.61809905  0.11751138    -0.19300
C756        C  0.67276323  0.59200749  0.12580960    -0.11900
C757        C  0.65860157  0.57427091  0.08621371     0.04800
C758        C  0.63496491  0.58218368  0.53369448    -0.24000
H759        H  0.58998240  0.65005036  0.45097113     0.09900
H760        H  0.59650180  0.60446609  0.45859265     0.13500
H761        H  0.65993243  0.66651852  0.09712278     0.13400
H762        H  0.68209589  0.63139436  0.14949938     0.13100
H763        H  0.68305509  0.58564911  0.16436735     0.13700
H764        H  0.61853365  0.56891983  0.50885735     0.15600
C765        C  0.64033651  0.88558186  0.27740829    -0.04400
C766        C  0.66513532  0.90235980  0.30364314    -0.04300
C767        C  0.66435495  0.92844164  0.29656885    -0.22500
C768        C  0.63864832  0.93828486  0.26336389     0.19700
C769        C  0.61221661  0.92186035  0.23941119     0.17000
C770        C  0.61324594  0.89554766  0.24658253    -0.17500
C771        C  0.58633023  0.93198463  0.20657907    -0.19300
C772        C  0.58784814  0.95782845  0.19504146    -0.11900
C773        C  0.61528310  0.97377357  0.21611646     0.04800
C774        C  0.63999089  0.96406829  0.25146610    -0.24000
H775        H  0.68621918  0.89520677  0.32760962     0.09900
H776        H  0.68463568  0.94082937  0.31552677     0.13500
H777        H  0.59385728  0.88279169  0.22641380     0.13400
H778        H  0.56570190  0.91975540  0.18816817     0.13100
H779        H  0.56870763  0.96510923  0.16750419     0.13700
H780        H  0.66116699  0.97646743  0.26779899     0.15600
C781        C  0.82431156  0.52326601  0.98033788    -0.04400
C782        C  0.82427025  0.51704104  0.03632405    -0.04300
C783        C  0.79282692  0.51602960  0.06677530    -0.22500
C784        C  0.76099824  0.52113957  0.04141089     0.19700
C785        C  0.76389081  0.52979147  0.48428940     0.17000
C786        C  0.79607391  0.53194554  0.45568740    -0.17500
C787        C  0.73317463  0.53870580  0.46155078    -0.19300
C788        C  0.70140349  0.53709092  0.49092813    -0.11900
C789        C  0.69774853  0.52610950  0.04620071     0.04800
C790        C  0.72932180  0.52044411  0.07162113    -0.24000
H791        H  0.84861474  0.51311201  0.05640143     0.09900
H792        H  0.79339202  0.51129097  0.11007160     0.13500
H793        H  0.79719825  0.54004330  0.41509220     0.13400
H794        H  0.73381930  0.54721660  0.42140217     0.13100
H795        H  0.67802915  0.54432340  0.47310434     0.13700
H796        H  0.72910733  0.51598685  0.11513928     0.15600
C797        C  0.86777832  0.47640049  0.95156977    -0.04400
C798        C  0.88418322  0.47048420  0.00091462    -0.04300
C799        C  0.88535961  0.44529003  0.01628152    -0.22500
C800        C  0.87072452  0.42560883  0.98181714     0.19700
C801        C  0.85768552  0.43339526  0.43835966     0.17000
C802        C  0.85576967  0.45879761  0.42363266    -0.17500
C803        C  0.84077360  0.41375612  0.40654296    -0.19300
C804        C  0.84597746  0.38838313  0.41790115    -0.11900
C805        C  0.86372167  0.38041740  0.95627981     0.04800
C806        C  0.87544103  0.40011167  0.99358816    -0.24000
H807        H  0.89757431  0.48526719  0.02618333     0.09900
H808        H  0.89913724  0.44110539  0.05373067     0.13500
H809        H  0.84103684  0.46347456  0.38742643     0.13400
H810        H  0.82468249  0.41798466  0.37153664     0.13100
H811        H  0.83393200  0.37356847  0.39108326     0.13700
H812        H  0.89016565  0.39569776  0.02997947     0.15600
C813        C  0.93712842  0.02650385  0.28153669    -0.04400
C814        C  0.94147797  0.03616048  0.22835338    -0.04300
C815        C  0.97445173  0.03661862  0.20219926    -0.22500
C816        C  0.50365803  0.02741956  0.22887946     0.19700
C817        C  0.99932800  0.01711942  0.28185639     0.17000
C818        C  0.96613106  0.01666652  0.30766720    -0.17500
C819        C  0.52840722  0.00782665  0.30858946    -0.19300
C820        C  0.56152893  0.00881530  0.28323684    -0.11900
C821        C  0.56617915  0.01910555  0.23081152     0.04800
C822        C  0.53712844  0.02843226  0.20377706    -0.24000
H823        H  0.91932105  0.04346153  0.20718932     0.09900
H824        H  0.97717629  0.04438689  0.16140295     0.13500
H825        H  0.96298088  0.00937548  0.34886381     0.13400
H826        H  0.52556739  0.99991267  0.34922503     0.13100
H827        H  0.58371672  0.00176465  0.30476032     0.13700
H828        H  0.54066787  0.03621579  0.16309922     0.15600
C829        C  0.88970652  0.07337072  0.29258344    -0.04400
C830        C  0.91689602  0.09001873  0.31182981    -0.04300
C831        C  0.91779325  0.11555124  0.29776894    -0.22500
C832        C  0.89150104  0.12470261  0.26424351     0.19700
C833        C  0.86519874  0.10757789  0.24231249     0.17000
C834        C  0.86447115  0.08208769  0.25674959    -0.17500
C835        C  0.83905176  0.11648323  0.20853088    -0.19300
C836        C  0.83786605  0.14231355  0.19859299    -0.11900
C837        C  0.86270274  0.15981196  0.22245027     0.04800
C838        C  0.89004946  0.15075566  0.25422141    -0.24000
H839        H  0.93626446  0.08357651  0.34008228     0.09900
H840        H  0.93827579  0.12833542  0.31479525     0.13500
H841        H  0.84328534  0.06921911  0.24226811     0.13400
H842        H  0.81883040  0.10356325  0.19113314     0.13100
H843        H  0.81658717  0.14873035  0.17395539     0.13700
H844        H  0.90944034  0.16404328  0.27271739     0.15600
C845        C  0.86304105  0.56968015  0.92696704    -0.04400
C846        C  0.86414069  0.58601069  0.38002818    -0.04300
C847        C  0.86521202  0.61245062  0.38698834    -0.22500
C848        C  0.86721743  0.62405709  0.44038434     0.19700
C849        C  0.86612787  0.60780445  0.98821649     0.17000
C850        C  0.86350630  0.58115753  0.98079281    -0.17500
C851        C  0.86970216  0.61945994  0.04147589    -0.19300
C852        C  0.87550696  0.64580420  0.04801149    -0.11900
C853        C  0.87636941  0.66211758  0.50076129     0.04800
C854        C  0.87207841  0.65054225  0.44740450    -0.24000
H855        H  0.86470398  0.57746915  0.33830723     0.09900
H856        H  0.86607674  0.62379408  0.35052656     0.13500
H857        H  0.86459992  0.56941720  0.01651790     0.13400
H858        H  0.86901670  0.60813774  0.07796209     0.13100
H859        H  0.87920069  0.65421223  0.08947329     0.13700
H860        H  0.87391605  0.66201331  0.41114715     0.15600
C861        C  0.88482528  0.88848227  0.28187056    -0.04400
C862        C  0.89000022  0.90175923  0.23289950    -0.04300
C863        C  0.89598592  0.92813359  0.23513797    -0.22500
C864        C  0.89649094  0.94182267  0.28639632     0.19700
C865        C  0.89228758  0.92861073  0.33603268     0.17000
C866        C  0.88684738  0.90205197  0.33348475    -0.17500
C867        C  0.89182952  0.94231659  0.38725358    -0.19300
C868        C  0.89319657  0.96886292  0.38902232    -0.11900
C869        C  0.89591019  0.98219221  0.33981858     0.04800
C870        C  0.89895263  0.96855024  0.28867708    -0.24000
H871        H  0.88865244  0.89180535  0.19263643     0.09900
H872        H  0.89910308  0.93791164  0.19666159     0.13500
H873        H  0.88284620  0.89209842  0.37160528     0.13400
H874        H  0.88868001  0.93255254  0.42574667     0.13100
H875        H  0.89053248  0.97906754  0.42879283     0.13700
H876        H  0.90025078  0.97869275  0.25048420     0.15600
O877        O  0.89574405  0.78664951  0.83388966    -0.57000
C878        C  0.87500373  0.78131720  0.67341405     0.75700
O879        O  0.79443433  0.82706019  0.77726722    -0.58100
C880        C  0.87479026  0.78102478  0.87286049     0.75600
C881        C  0.87382616  0.86077982  0.78210378     0.78000
Cd882      Cd  0.85197331  0.80709771  0.77592909     1.37500
O883        O  0.89631993  0.79420908  0.70428462    -0.57000
O884        O  0.87095583  0.84825102  0.73621233    -0.55800
C885        C  0.77638706  0.80654086  0.77067295     0.78000
O886        O  0.86735119  0.84844174  0.82514522    -0.58100
O887        O  0.84342163  0.78018065  0.68976569    -0.56600
O888        O  0.84334948  0.78712203  0.86721937    -0.56600
O889        O  0.79311269  0.78627743  0.76614134    -0.55800
O890        O  0.86487757  0.75541191  0.59052001    -0.57000
C891        C  0.88640101  0.76808332  0.92199907     0.75700
O892        O  0.96714497  0.72098277  0.01892804    -0.58100
C893        C  0.88622105  0.76836321  0.62120779     0.75600
C894        C  0.88709587  0.68851343  0.00778790     0.78000
Cd895      Cd  0.90998428  0.74171939  0.01783814     1.37500
O896        O  0.86556620  0.76242396  0.96113735    -0.57000
O897        O  0.89361034  0.70020823  0.55398101    -0.55800
C898        C  0.98464969  0.74250329  0.51902872     0.78000
O899        O  0.88692931  0.70387558  0.46642286    -0.58100
O900        O  0.91787718  0.76198169  0.92728980    -0.56600
O901        O  0.91774107  0.76963657  0.60452667    -0.56600
O902        O  0.96968281  0.76176000  0.01540915    -0.55800
N903        N  0.89951205  0.02782885  0.81167071    -0.02600
C904        C  0.87877301  0.04823734  0.81668198     0.00000
C905        C  0.85011420  0.04304728  0.85035137    -0.22900
C906        C  0.85321617  0.01864392  0.86690536    -0.23100
C907        C  0.88354522  0.00959012  0.84237260    -0.00100
H908        H  0.82915639  0.05565231  0.86148919     0.13600
H909        H  0.83440298  0.00818186  0.89188555     0.13700
N910        N  0.85917392  0.52390618  0.44700965    -0.02600
C911        C  0.87261922  0.54353364  0.41779340     0.00000
C912        C  0.90017011  0.53554050  0.38429755    -0.22900
C913        C  0.90398096  0.51025628  0.39335513    -0.23100
C914        C  0.87858703  0.50366028  0.43185388    -0.00100
H915        H  0.91673744  0.54713016  0.35797080     0.13600
H916        H  0.92350292  0.49809774  0.37463792     0.13700
O917        O  0.89367123  0.26714096  0.52862923    -0.57000
C918        C  0.87791107  0.27830590  0.86825091     0.75700
O919        O  0.89770153  0.34949795  0.50682133    -0.58100
C920        C  0.87932005  0.27883491  0.56922591     0.75600
C921        C  0.97895306  0.30719643  0.97273605     0.78000
Cd922      Cd  0.90488870  0.30509434  0.47189446     1.37500
O923        O  0.85892564  0.27976431  0.91162072    -0.57000
O924        O  0.96379905  0.28850731  0.48627477    -0.55800
C925        C  0.87816240  0.35568143  0.46775654     0.78000
O926        O  0.96346492  0.32674212  0.45914896    -0.58100
O927        O  0.90853050  0.28833387  0.87163171    -0.56600
O928        O  0.87682451  0.30253888  0.56529611    -0.56600
O929        O  0.86950409  0.33815305  0.43243928    -0.55800
O930        O  0.88432995  0.26259706  0.77415555    -0.57000
C931        C  0.86594951  0.26563704  0.61825577     0.75700
O932        O  0.83189559  0.19534895  0.68295611    -0.58100
C933        C  0.86492287  0.26562517  0.81665643     0.75600
C934        C  0.76245242  0.24208517  0.71867284     0.78000
Cd935      Cd  0.83845173  0.24031775  0.71564408     1.37500
O936        O  0.85074767  0.27744256  0.65786933    -0.57000
O937        O  0.78120766  0.25731328  0.69087106    -0.55800
C938        C  0.85474315  0.18699675  0.71454821     0.78000
O939        O  0.77853226  0.22595977  0.74498611    -0.58100
O940        O  0.86876444  0.24198433  0.62304775    -0.56600
O941        O  0.83360359  0.25713331  0.81254224    -0.56600
O942        O  0.87185021  0.20351816  0.74410346    -0.55800
O943        O  0.62099270  0.77906802  0.71390500    -0.57000
C944        C  0.63765719  0.78034800  0.86880929     0.75700
O945        O  0.72140412  0.82662287  0.77156538    -0.58100
C946        C  0.63708488  0.78152006  0.66821520     0.75600
C947        C  0.64438877  0.85912881  0.77672326     0.78000
Cd948      Cd  0.66218257  0.80616771  0.77082406     1.37500
O949        O  0.66575031  0.77470858  0.84378730    -0.57000
O950        O  0.62854067  0.84328547  0.74383731    -0.55800
C951        C  0.73793818  0.80626985  0.76928202     0.78000
O952        O  0.66649460  0.85015100  0.80866137    -0.58100
O953        O  0.62081322  0.79810472  0.84929632    -0.56600
O954        O  0.66457584  0.79568576  0.66925230    -0.56600
O955        O  0.71965545  0.78573919  0.76655953    -0.55800
O956        O  0.59631960  0.77170842  0.94122717    -0.57000
C957        C  0.62452710  0.76832688  0.61691692     0.75700
O958        O  0.53923903  0.72179702  0.52209808    -0.58100
C959        C  0.62526769  0.76691972  0.91787878     0.75600
C960        C  0.61870928  0.68864462  0.51594315     0.78000
Cd961      Cd  0.59917207  0.74153994  0.51688726     1.37500
O962        O  0.64091962  0.76996736  0.57123712    -0.57000
O963        O  0.62985487  0.70471550  0.55284417    -0.55800
C964        C  0.52438753  0.74102239  0.01612250     0.78000
O965        O  0.59987129  0.69722540  0.47853483    -0.58100
O966        O  0.59676961  0.75447750  0.61641255    -0.56600
O967        O  0.64290499  0.74996837  0.93896325    -0.56600
O968        O  0.54193830  0.76228770  0.51444755    -0.55800
N969        N  0.66757773  0.52600530  0.57475798    -0.02600
C970        C  0.65183523  0.50577075  0.59917828     0.00000
C971        C  0.62395482  0.51363899  0.63208859    -0.22900
C972        C  0.62244713  0.53948490  0.62768654    -0.23100
C973        C  0.64949127  0.54659133  0.59244933    -0.00100
H974        H  0.60573613  0.50170814  0.65495327     0.13600
H975        H  0.60331245  0.55172415  0.64722982     0.13700
O976        O  0.63801356  0.29705386  0.90368428    -0.57000
C977        C  0.61669383  0.28429100  0.57108766     0.75700
O978        O  0.62092807  0.34748183  0.52976743    -0.58100
C979        C  0.61613326  0.28570925  0.87110359     0.75600
C980        C  0.51964332  0.30934428  0.47282352     0.78000
Cd981      Cd  0.59350682  0.31104446  0.97567991     1.37500
O982        O  0.63512253  0.28408272  0.52697659    -0.57000
O983        O  0.53508529  0.28946294  0.98325197    -0.55800
C984        C  0.61937521  0.36393064  0.99163892     0.78000
O985        O  0.53480844  0.32920805  0.96642029    -0.58100
O986        O  0.58866074  0.29630359  0.57029830    -0.56600
O987        O  0.58432495  0.28633684  0.88609882    -0.56600
O988        O  0.61063421  0.35466787  0.44475879    -0.55800
O989        O  0.60778502  0.26995283  0.66353814    -0.57000
C990        C  0.62688736  0.27215786  0.81894181     0.75700
O991        O  0.62610600  0.20087297  0.74457810    -0.58100
C992        C  0.62722840  0.27123731  0.62068768     0.75600
C993        C  0.72400313  0.24297621  0.71972147     0.78000
Cd994      Cd  0.64841894  0.24426427  0.71679778     1.37500
O995        O  0.60490038  0.26009007  0.78771159    -0.57000
O996        O  0.70833921  0.26014720  0.69590122    -0.55800
C997        C  0.62490644  0.19127898  0.69548282     0.78000
O998        O  0.70488462  0.22657507  0.74382142    -0.58100
O999        O  0.65860320  0.27167242  0.80319602    -0.56600
O1000       O  0.65631603  0.26063351  0.62262486    -0.56600
O1001       O  0.63273067  0.20629484  0.65754440    -0.55800
N1002       N  0.59581685  0.02048587  0.70443916    -0.02600
C1003       C  0.61734749  0.00075861  0.69560947     0.00000
C1004       C  0.64699975  0.00836946  0.66644485    -0.22900
C1005       C  0.64370986  0.03367481  0.65701538    -0.23100
C1006       C  0.61228481  0.04081418  0.68129174    -0.00100
H1007       H  0.66901212  0.99688119  0.65446973     0.13600
H1008       H  0.66323458  0.04591503  0.63765704     0.13700
C1009       C  0.61660596  0.16391337  0.68252439    -0.04400
C1010       C  0.62166709  0.15389677  0.62801017    -0.04300
C1011       C  0.61832213  0.12778209  0.61591443    -0.22500
C1012       C  0.60977662  0.11107978  0.65803138     0.19700
C1013       C  0.60293874  0.12089967  0.71250816     0.17000
C1014       C  0.60633824  0.14728501  0.72441179    -0.17500
C1015       C  0.59446253  0.10401828  0.75452133    -0.19300
C1016       C  0.59479307  0.07771814  0.74346798    -0.11900
C1017       C  0.60333419  0.06785369  0.69009082     0.04800
C1018       C  0.60974854  0.08469901  0.64720586    -0.24000
H1019       H  0.62949037  0.16620374  0.59489032     0.09900
H1020       H  0.62350940  0.12058526  0.57386442     0.13500
H1021       H  0.60223477  0.15474607  0.76657048     0.13400
H1022       H  0.58909459  0.11114397  0.79654960     0.13100
H1023       H  0.59058137  0.06518257  0.77747900     0.13700
H1024       H  0.61657654  0.07722432  0.60594971     0.15600
C1025       C  0.63129197  0.39096141  0.00127880    -0.04400
C1026       C  0.63165444  0.40789468  0.95773748    -0.04300
C1027       C  0.63983909  0.43381545  0.96784570    -0.22500
C1028       C  0.64731090  0.44340487  0.02190176     0.19700
C1029       C  0.64830448  0.42640363  0.06562888     0.17000
C1030       C  0.64190971  0.39963668  0.55569693    -0.17500
C1031       C  0.65458881  0.43562495  0.62040796    -0.19300
C1032       C  0.65801159  0.46187705  0.63077918    -0.11900
C1033       C  0.65850874  0.47855371  0.58686809     0.04800
C1034       C  0.65158809  0.46977462  0.03363884    -0.24000
H1035       H  0.62478008  0.40119437  0.91597188     0.09900
H1036       H  0.63905624  0.44649458  0.93371858     0.13500
H1037       H  0.63910741  0.38726086  0.59036415     0.13400
H1038       H  0.65297773  0.42330546  0.65525118     0.13100
H1039       H  0.65840434  0.46930433  0.67344380     0.12900
H1040       H  0.64907374  0.48290469  0.00064177     0.15600
C1041       C  0.62602472  0.66118788  0.51741882    -0.04400
C1042       C  0.62136805  0.64382242  0.97700802    -0.04300
C1043       C  0.62649267  0.61787268  0.98194720    -0.22500
C1044       C  0.64292596  0.60912895  0.02891552     0.19700
C1045       C  0.65311175  0.62577096  0.56113973     0.17000
C1046       C  0.64919528  0.65208734  0.55660543    -0.17500
C1047       C  0.67505399  0.61642367  0.60148490    -0.19300
C1048       C  0.67607915  0.59023816  0.60897636    -0.11900
C1049       C  0.65555387  0.57304145  0.57583451     0.04800
C1050       C  0.64470761  0.58292138  0.03700075    -0.24000
H1051       H  0.60744743  0.64987249  0.94123235     0.09900
H1052       H  0.61648681  0.60454528  0.94984880     0.13500
H1053       H  0.66339840  0.66540256  0.58452257     0.13400
H1054       H  0.69032600  0.62939563  0.62868732     0.13100
H1055       H  0.69153470  0.58346416  0.64239326     0.13700
H1056       H  0.63285280  0.56931608  0.00705187     0.15600
C1057       C  0.63919971  0.88680474  0.77582302    -0.04400
C1058       C  0.66422946  0.90374145  0.80099364    -0.04300
C1059       C  0.66306770  0.92979362  0.79381665    -0.22500
C1060       C  0.63669948  0.93946926  0.76166019     0.19700
C1061       C  0.61008782  0.92288713  0.73874946     0.17000
C1062       C  0.61156950  0.89658206  0.74585305    -0.17500
C1063       C  0.58346905  0.93287457  0.70715683    -0.19300
C1064       C  0.58437984  0.95874633  0.69583007    -0.11900
C1065       C  0.61196771  0.97485726  0.71579077     0.04800
C1066       C  0.63747263  0.96526464  0.74988472    -0.24000
H1067       H  0.68573384  0.89673798  0.82426602     0.09900
H1068       H  0.68349415  0.94230248  0.81198603     0.13500
H1069       H  0.59200474  0.88370341  0.72650073     0.13400
H1070       H  0.56267445  0.92053232  0.68959820     0.13100
H1071       H  0.56461570  0.96592707  0.66926482     0.13700
H1072       H  0.65876413  0.97778121  0.76539036     0.15600
C1073       C  0.82686037  0.52318590  0.47865095    -0.04400
C1074       C  0.82519717  0.51235789  0.53089553    -0.04300
C1075       C  0.79321916  0.50998401  0.55957968    -0.22500
C1076       C  0.76239620  0.51861509  0.53661574     0.19700
C1077       C  0.76088202  0.52731237  0.98485018     0.17000
C1078       C  0.79258293  0.52838159  0.95479238    -0.17500
C1079       C  0.72907155  0.53239219  0.95941273    -0.19300
C1080       C  0.69771793  0.53192036  0.99006597    -0.11900
C1081       C  0.69974164  0.52622629  0.54301480     0.04800
C1082       C  0.73021803  0.51667129  0.56537251    -0.24000
H1083       H  0.84869510  0.50584113  0.54960841     0.09900
H1084       H  0.79262582  0.50151634  0.59978161     0.13500
H1085       H  0.79271756  0.53286026  0.91129327     0.13400
H1086       H  0.72851051  0.53697290  0.91602523     0.13100
H1087       H  0.67339770  0.53606460  0.97014277     0.13700
H1088       H  0.72893348  0.50845440  0.60584670     0.15600
C1089       C  0.87478679  0.47804875  0.45350778    -0.04400
C1090       C  0.89469218  0.47202933  0.49937954    -0.04300
C1091       C  0.89613809  0.44692288  0.51506339    -0.22500
C1092       C  0.87843454  0.42739019  0.48402294     0.19700
C1093       C  0.85305921  0.43153055  0.93293059     0.17000
C1094       C  0.85155067  0.45696464  0.91825215    -0.17500
C1095       C  0.83907866  0.41181054  0.89795424    -0.19300
C1096       C  0.84456490  0.38648242  0.90934543    -0.11900
C1097       C  0.86779892  0.38221621  0.46170862     0.04800
C1098       C  0.88285942  0.40189549  0.49590916    -0.24000
H1099       H  0.91001813  0.48673029  0.52198111     0.09900
H1100       H  0.91228200  0.44266274  0.54998028     0.13500
H1101       H  0.83946836  0.46155879  0.87956475     0.13400
H1102       H  0.82526161  0.41598070  0.86052688     0.13100
H1103       H  0.83498997  0.37166116  0.88017524     0.13700
H1104       H  0.89976863  0.39740329  0.52975773     0.15600
C1105       C  0.93282346  0.02654565  0.78282595    -0.04400
C1106       C  0.93690889  0.03583903  0.72928382    -0.04300
C1107       C  0.96977619  0.03634751  0.70291187    -0.22500
C1108       C  0.49916949  0.02749813  0.72964179     0.19700
C1109       C  0.99514563  0.01742282  0.78289813     0.17000
C1110       C  0.96201157  0.01697474  0.80905075    -0.17500
C1111       C  0.52446734  0.00835461  0.80945086    -0.19300
C1112       C  0.55750467  0.00944409  0.78371883    -0.11900
C1113       C  0.56182305  0.01966756  0.73115905     0.04800
C1114       C  0.53252833  0.02866784  0.70425662    -0.24000
H1115       H  0.91459779  0.04282909  0.70797391     0.09900
H1116       H  0.97226845  0.04388189  0.66186276     0.13500
H1117       H  0.95904609  0.00987976  0.85045265     0.13400
H1118       H  0.52188634  0.00055931  0.85023523     0.13100
H1119       H  0.57988213  0.00258089  0.80508277     0.13700
H1120       H  0.53580491  0.03635022  0.66343412     0.15600
C1121       C  0.88510941  0.07320543  0.79217808    -0.04400
C1122       C  0.91165899  0.09002127  0.81296196    -0.04300
C1123       C  0.91280200  0.11549851  0.79855437    -0.22500
C1124       C  0.88743082  0.12444119  0.76305521     0.19700
C1125       C  0.86183152  0.10717486  0.73957967     0.17000
C1126       C  0.86080412  0.08171847  0.75446557    -0.17500
C1127       C  0.83663987  0.11593111  0.70379071    -0.19300
C1128       C  0.83560731  0.14175596  0.69347918    -0.11900
C1129       C  0.85967036  0.15937578  0.71890901     0.04800
C1130       C  0.88616479  0.15044729  0.75257945    -0.24000
H1131       H  0.93029818  0.08374613  0.84260790     0.09900
H1132       H  0.93273104  0.12840727  0.81678535     0.13500
H1133       H  0.84011237  0.06872364  0.73873922     0.13400
H1134       H  0.81698640  0.10290768  0.68513555     0.13100
H1135       H  0.81500320  0.14807380  0.66733289     0.13700
H1136       H  0.90496189  0.16382075  0.77231346     0.15600
C1137       C  0.86443006  0.57067496  0.42623046    -0.04400
C1138       C  0.86250354  0.58507336  0.88088237    -0.04300
C1139       C  0.86423103  0.61150278  0.88794101    -0.22500
C1140       C  0.86713727  0.62304164  0.94129619     0.19700
C1141       C  0.86596740  0.60883695  0.48734356     0.17000
C1142       C  0.86397352  0.58218023  0.47998843    -0.17500
C1143       C  0.86876965  0.62052994  0.54065399    -0.19300
C1144       C  0.87410478  0.64690176  0.54726407    -0.11900
C1145       C  0.87760339  0.66100446  0.00147175     0.04800
C1146       C  0.87259900  0.64947010  0.94823797    -0.24000
H1147       H  0.86222952  0.57657161  0.83911274     0.09900
H1148       H  0.86483708  0.62287690  0.85152750     0.13500
H1149       H  0.86494098  0.57047713  0.51579742     0.13400
H1150       H  0.86789967  0.60921954  0.57715866     0.13100
H1151       H  0.87723901  0.65533962  0.58881137     0.13700
H1152       H  0.87417230  0.66093786  0.91195999     0.15600
C1153       C  0.88318304  0.88842044  0.78515118    -0.04400
C1154       C  0.88928062  0.90158234  0.73623953    -0.04300
C1155       C  0.89493339  0.92797687  0.73833369    -0.22500
C1156       C  0.89419364  0.94181160  0.78936528     0.19700
C1157       C  0.88921608  0.92873120  0.83903988     0.17000
C1158       C  0.88413818  0.90213064  0.83667496    -0.17500
C1159       C  0.88754135  0.94260713  0.88997549    -0.19300
C1160       C  0.88840754  0.96915914  0.89127055    -0.11900
C1161       C  0.89185410  0.98233373  0.84191558     0.04800
C1162       C  0.89613307  0.96854129  0.79122343    -0.24000
H1163       H  0.88884240  0.89152217  0.69605828     0.09900
H1164       H  0.89870374  0.93765464  0.69984144     0.13500
H1165       H  0.87949191  0.89225985  0.87475439     0.13400
H1166       H  0.88379485  0.93295628  0.92850950     0.13100
H1167       H  0.88478600  0.97946890  0.93070451     0.13700
H1168       H  0.89797421  0.97853474  0.75286515     0.15600
loop_ 
_geom_bond_atom_site_label_1 
_geom_bond_atom_site_label_2 
_geom_bond_distance 
_geom_bond_site_symmetry_2 
_ccdc_geom_bond_type 
O1            C4   1.264       .  A
O1           Cd6   2.491       .  S
C2           O11   1.263       .  A
C2            O7   1.266       .  A
C2           C17   1.472       .  S
O3            C9   1.265       .  A
O3           Cd6   2.461       .  S
C4           O12   1.263       .  A
C4           C15   1.472       .  S
C5           O10   1.264       .  A
C5            O8   1.265       .  A
C5          C277   1.486       .  S
Cd6          O13   2.477       .  S
Cd6          O12   2.491       .  S
Cd6          O11   2.477       .  S
Cd6           O7   2.495       .  S
Cd6          O10   2.487       .  S
Cd6           O8   2.495       .  S
C9           O13   1.265       .  A
C9           C75   1.466       .  S
O14          C17   1.264       .  A
O14        Cd311   2.491       .  S
C15          O24   1.263       .  A
C15          O20   1.265       .  A
O16         C314   1.265       .  A
O16         Cd19   2.470       .  S
C17          O25   1.263       .  A
C18         O315   1.265       .  A
C18         O313   1.265       .  A
C18         C269   1.484       .  S
Cd19         O26   2.474       .  S
Cd19         O24   2.478       .  S
Cd19         O20   2.498       .  S
Cd19        O306   2.492       .  S
Cd19        O317   2.483       .  S
Cd19        O315   2.477       .  S
Cd19        O313   2.488       .  S
O21         C310   1.266       .  A
O21        Cd311   2.492       .  S
C22         O308   1.265       .  A
C22         O318   1.266       .  A
C22         C964   1.469       .  S
O23         C310   1.264   1_556  A
O23        Cd311   2.469   1_556  S
O25        Cd311   2.492       .  S
O26         C314   1.265       .  A
N27          C31   1.361       .  A
N27          C28   1.359       .  A
N27         C229   1.443       .  S
C28         C245   1.476       .  S
C28          C29   1.380       .  A
C29          C30   1.373       .  A
C29          H32   1.082       .  S
C30          C31   1.383       .  A
C30          H33   1.082       .  S
C31         C285   1.482   1_545  S
N34          C38   1.354       .  A
N34          C35   1.357       .  A
N34         C197   1.436       .  S
C35         C261   1.482       .  S
C35          C36   1.384       .  A
C36          C37   1.375       .  A
C36          H39   1.082       .  S
C37          C38   1.380       .  A
C37          H40   1.082       .  S
C38         C213   1.472       .  S
O41          C44   1.263       .  A
O41         Cd46   2.493   1_554  S
C42          O51   1.265       .  A
C42          O47   1.265       .  A
C42          C57   1.467       .  S
O43          C49   1.267   1_554  A
O43         Cd46   2.484   1_554  S
C44          O52   1.264       .  A
C44          C55   1.472       .  S
C45         O342   1.263       .  A
C45         O340   1.263       .  A
C45         C980   1.468       .  S
Cd46         O53   2.473       .  S
Cd46         O52   2.482   1_556  S
Cd46         O50   2.490       .  S
Cd46         O48   2.480       .  S
Cd46        O343   2.475       .  S
Cd46        O339   2.466       .  S
O47        Cd338   2.463       .  S
O48         C337   1.263       .  A
C49          O53   1.265       .  A
C49         C221   1.483       .  S
O50         C337   1.263       .  A
O51        Cd338   2.479       .  S
O54          C57   1.265       .  A
O54         Cd59   2.492       .  S
C55          O64   1.266       .  A
C55          O60   1.263       .  A
O56          C62   1.266       .  A
O56         Cd59   2.461       .  S
C57          O65   1.263       .  A
C58          O63   1.264       .  A
C58          O61   1.264       .  A
C58         C117   1.468       .  S
Cd59         O66   2.492       .  S
Cd59         O65   2.466       .  S
Cd59         O64   2.505       .  S
Cd59         O60   2.473       .  S
Cd59         O63   2.487       .  S
Cd59         O61   2.472       .  S
C62          O66   1.267       .  A
C62         C253   1.483       .  S
O67          C70   1.263       .  A
O67         Cd72   2.467       .  S
C68          O77   1.264       .  A
C68          O73   1.262       .  A
C68          C83   1.469       .  S
O69          C75   1.263       .  A
O69         Cd72   2.461       .  S
C70          O78   1.263       .  A
C70          C81   1.466       .  S
C71          O76   1.265       .  A
C71          O74   1.267       .  A
C71         C181   1.481       .  S
Cd72         O79   2.482       .  S
Cd72         O78   2.484       .  S
Cd72         O77   2.485       .  S
Cd72         O73   2.484       .  S
Cd72         O76   2.456       .  S
Cd72         O74   2.489       .  S
C75          O79   1.265       .  A
O80          C83   1.262       .  A
O80        Cd377   2.474       .  S
C81          O90   1.263       .  A
C81          O86   1.265       .  A
O82         C380   1.265       .  A
O82         Cd85   2.487       .  S
C83          O91   1.265       .  A
C84          O89   1.268   1_554  A
C84          O87   1.266       .  A
C84         C165   1.489       .  S
Cd85         O92   2.476       .  S
Cd85         O90   2.461       .  S
Cd85         O86   2.486       .  S
Cd85         O89   2.497   1_554  S
Cd85         O87   2.489       .  S
Cd85        O372   2.477   1_554  S
Cd85        O383   2.489   1_554  S
C88         O374   1.264       .  A
C88         O384   1.264       .  A
C88         C898   1.468   1_455  S
O91        Cd377   2.493       .  S
O92         C380   1.263       .  A
N93          C97   1.357       .  A
N93          C94   1.356       .  A
N93         C205   1.434       .  S
C94         C157   1.484       .  S
C94          C95   1.384       .  A
C95          C96   1.377       .  A
C95          H98   1.082       .  S
C96          C97   1.381       .  A
C96          H99   1.082       .  S
C97         C173   1.481       .  S
O100        C103   1.266       .  A
O100       Cd105   2.522       .  S
C101        O110   1.264       .  A
C101        O106   1.266       .  A
C101        C116   1.473       .  S
O102        C400   1.263   1_554  A
O102       Cd397   2.488   1_554  S
C103        O111   1.263       .  A
C103        C114   1.481       .  S
C104        O401   1.266       .  A
C104        O399   1.264       .  A
C104        C921   1.469   1_455  S
Cd105       O111   2.500       .  S
Cd105       O109   2.489       .  S
Cd105       O107   2.460       .  S
Cd105       O394   2.489       .  S
Cd105       O404   2.507       .  S
Cd105       O402   2.477       .  S
Cd105       O398   2.489       .  S
O106       Cd397   2.486   1_554  S
O107        C396   1.263       .  A
C108        O394   1.263       .  A
C108        O404   1.266       .  A
C108        C149   1.488       .  S
O109        C396   1.266       .  A
O110       Cd397   2.491   1_554  S
O112        C400   1.266       .  A
O112       Cd397   2.512       .  S
O113        C116   1.266       .  A
O113       Cd118   2.509       .  S
C114        O123   1.265       .  A
C114        O119   1.267       .  A
O115        C121   1.266       .  A
O115       Cd118   2.524       .  S
C116        O124   1.262       .  A
C117        O122   1.266       .  A
C117        O120   1.264       .  A
Cd118       O125   2.465       .  S
Cd118       O124   2.477       .  S
Cd118       O123   2.506       .  S
Cd118       O119   2.506       .  S
Cd118       O122   2.488       .  S
Cd118       O120   2.464       .  S
C121        O125   1.262       .  A
C121        C133   1.486       .  S
N126        C130   1.360       .  A
N126        C127   1.357   1_545  A
N126        C237   1.440       .  S
C127        C189   1.476       .  S
C127        C128   1.380   1_565  A
C128        C129   1.374       .  A
C128        H131   1.082   1_545  S
C129        C130   1.385       .  A
C129        H132   1.082       .  S
C130        C141   1.485       .  S
C133        C134   1.407       .  A
C133        C138   1.409       .  A
C134        C135   1.396       .  A
C134        H143   1.083       .  S
C135        C136   1.400       .  A
C135        H144   1.085       .  S
C136        C142   1.403       .  A
C136        C137   1.414       .  A
C137        C139   1.404       .  A
C137        C138   1.410       .  A
C138        H145   1.085       .  S
C139        C140   1.401       .  A
C139        H146   1.084       .  S
C140        C141   1.405       .  A
C140        H147   1.082       .  S
C141        C142   1.405       .  A
C142        H148   1.085       .  S
C149        C150   1.406       .  A
C149        C446   1.408       .  A
C150        C151   1.401       .  A
C150        H159   1.083       .  S
C151        C152   1.403       .  A
C151        H160   1.083       .  S
C152        C158   1.410       .  A
C152        C153   1.415       .  A
C153        C447   1.402       .  A
C153        C446   1.408       .  A
C154        C441   1.409       .  A
C154        C445   1.407       .  A
C154        H161   1.084       .  S
C155        C156   1.398       .  A
C155        C445   1.402       .  A
C155        H162   1.083       .  S
C156        C157   1.404       .  A
C156        H163   1.083       .  S
C157        C450   1.407       .  A
C158        C449   1.406       .  A
C158        H164   1.084       .  S
C165        C170   1.410       .  A
C165        C458   1.406   1_554  A
C166        C167   1.397       .  A
C166        C457   1.406       .  A
C166        H175   1.083       .  S
C167        C168   1.401       .  A
C167        H176   1.084       .  S
C168        C174   1.405       .  A
C168        C461   1.415       .  A
C169        C171   1.404       .  A
C169        C170   1.410       .  A
C169        C460   1.415       .  A
C170        H177   1.084       .  S
C171        C172   1.401       .  A
C171        H178   1.084       .  S
C172        C173   1.404       .  A
C172        H179   1.083       .  S
C173        C466   1.404       .  A
C174        C465   1.402       .  A
C174        H180   1.085       .  S
C181        C182   1.406       .  A
C181        C186   1.409       .  A
C182        C183   1.395       .  A
C182        H191   1.083       .  S
C183        C184   1.400       .  A
C183        H192   1.085       .  S
C184        C190   1.401       .  A
C184        C185   1.415       .  A
C185        C187   1.406       .  A
C185        C186   1.408       .  A
C186        H193   1.085       .  S
C187        C188   1.402       .  A
C187        H194   1.084       .  S
C188        C189   1.402       .  A
C188        H195   1.083       .  S
C189        C190   1.402       .  A
C190        H196   1.086       .  S
C197        C198   1.402   1_556  A
C197        C494   1.403       .  A
C198        C199   1.399       .  A
C198        H207   1.082       .  S
C199        C200   1.404       .  A
C199        H208   1.083       .  S
C200        C206   1.403       .  A
C200        C493   1.414   1_554  A
C201        C203   1.403       .  A
C201        C202   1.404       .  A
C201        C492   1.414       .  A
C202        C489   1.404       .  A
C202        H209   1.084       .  S
C203        C204   1.398       .  A
C203        H210   1.083       .  S
C204        C497   1.402       .  A
C204        H211   1.082       .  S
C205        C206   1.404       .  A
C205        C496   1.399   1_554  A
C206        H212   1.084       .  S
C213        C214   1.401   1_556  A
C213        C510   1.403       .  A
C214        C215   1.397       .  A
C214        H223   1.083       .  S
C215        C216   1.403   1_554  A
C215        H224   1.083       .  S
C216        C222   1.405       .  A
C216        C509   1.415       .  A
C217        C219   1.402       .  A
C217        C218   1.405       .  A
C217        C508   1.415       .  A
C218        C505   1.402       .  A
C218        H225   1.084       .  S
C219        C220   1.399       .  A
C219        H226   1.084       .  S
C220        C513   1.407       .  A
C220        H227   1.083       .  S
C221        C222   1.406       .  A
C221        C512   1.407       .  A
C222        H228   1.084   1_556  S
C229        C230   1.405       .  A
C229        C234   1.405       .  A
C230        C231   1.400       .  A
C230        H239   1.082       .  S
C231        C816   1.403       .  A
C231        H240   1.084       .  S
C232        C238   1.406       .  A
C232        C815   1.403   1_455  A
C232        C817   1.414   1_455  A
C233        C234   1.404       .  A
C233        C816   1.414       .  A
C233        C819   1.402       .  A
C234        H241   1.084       .  S
C235        C236   1.397       .  A
C235        C817   1.402   1_455  A
C235        H242   1.083   1_545  S
C236        C237   1.403       .  A
C236        H243   1.082       .  S
C237        C238   1.406       .  A
C238        H244   1.084       .  S
C245        C246   1.402       .  A
C245        C250   1.402       .  A
C246        C247   1.402       .  A
C246        H255   1.083       .  S
C247        C248   1.406       .  A
C247        H256   1.084       .  S
C248        C254   1.408       .  A
C248        C249   1.415       .  A
C249        C251   1.400       .  A
C249        C250   1.402       .  A
C250        H257   1.086       .  S
C251        C252   1.396       .  A
C251        H258   1.085       .  S
C252        C253   1.406       .  A
C252        H259   1.083       .  S
C253        C254   1.409       .  A
C254        H260   1.085       .  S
C261        C266   1.406       .  A
C261        C554   1.404       .  A
C262        C263   1.396       .  A
C262        C553   1.404       .  A
C262        H271   1.083       .  S
C263        C264   1.401       .  A
C263        H272   1.084       .  S
C264        C270   1.405       .  A
C264        C557   1.415       .  A
C265        C267   1.403   1_556  A
C265        C266   1.409       .  A
C265        C556   1.414       .  A
C266        H273   1.084   1_556  S
C267        C268   1.401       .  A
C267        H274   1.083       .  S
C268        C561   1.406       .  A
C268        H275   1.083       .  S
C269        C270   1.407       .  A
C269        C560   1.406       .  A
C270        H276   1.084       .  S
C277        C278   1.406       .  A
C277        C282   1.408       .  A
C278        C279   1.400       .  A
C278        H287   1.083       .  S
C279        C280   1.402       .  A
C279        H288   1.083       .  S
C280        C286   1.408       .  A
C280        C281   1.415       .  A
C281        C283   1.402       .  A
C281        C282   1.407       .  A
C282        H289   1.084       .  S
C283        C284   1.398       .  A
C283        H290   1.083       .  S
C284        C285   1.405       .  A
C284        H291   1.084       .  S
C285        C286   1.405       .  A
C286        H292   1.084       .  S
O293        C296   1.264       .  A
O293       Cd298   2.492       .  S
C294        O303   1.263       .  A
C294        O299   1.266       .  A
C294        C309   1.471       .  S
O295        C301   1.265       .  A
O295       Cd298   2.467       .  S
C296        O304   1.262       .  A
C296        C307   1.472       .  S
C297        O302   1.265       .  A
C297        O300   1.266       .  A
C297        C569   1.486       .  S
Cd298       O305   2.469       .  S
Cd298       O304   2.493       .  S
Cd298       O303   2.480       .  S
Cd298       O299   2.493       .  S
Cd298       O302   2.489       .  S
Cd298       O300   2.490       .  S
C301        O305   1.265       .  A
C301        C367   1.466       .  S
O306        C309   1.265       .  A
C307        O316   1.263       .  A
C307        O312   1.265       .  A
O308       Cd311   2.474       .  S
C309        O317   1.263       .  A
C310        C561   1.484       .  S
Cd311       O318   2.474       .  S
Cd311       O316   2.481   1_554  S
Cd311       O312   2.498   1_554  S
C314        C672   1.468       .  S
N319        C323   1.361       .  A
N319        C320   1.359       .  A
N319        C521   1.443       .  S
C320        C537   1.477       .  S
C320        C321   1.380       .  A
C321        C322   1.373       .  A
C321        H324   1.082       .  S
C322        C323   1.384       .  A
C322        H325   1.082       .  S
C323        C577   1.483   1_545  S
N326        C330   1.356       .  A
N326        C327   1.359       .  A
N326        C489   1.442       .  S
C327        C553   1.481       .  S
C327        C328   1.384       .  A
C328        C329   1.374       .  A
C328        H331   1.082       .  S
C329        C330   1.379       .  A
C329        H332   1.082       .  S
C330        C505   1.471       .  S
O333        C336   1.263       .  A
O333       Cd338   2.494       .  S
C334        O343   1.265       .  A
C334        O339   1.266       .  A
C334        C349   1.467       .  S
O335        C341   1.267       .  A
O335       Cd338   2.477       .  S
C336        O344   1.265       .  A
C336        C347   1.474       .  S
C337        C688   1.469       .  S
Cd338       O345   2.471       .  S
Cd338       O344   2.487       .  S
Cd338       O342   2.492       .  S
Cd338       O340   2.473       .  S
C341        O345   1.265       .  A
C341        C513   1.482       .  S
O346        C349   1.264       .  A
O346       Cd351   2.485       .  S
C347        O356   1.266       .  A
C347        O352   1.263       .  A
O348        C354   1.266       .  A
O348       Cd351   2.470       .  S
C349        O357   1.262       .  A
C350        O355   1.263       .  A
C350        O353   1.264       .  A
C350        C409   1.468       .  S
Cd351       O358   2.485       .  S
Cd351       O357   2.467       .  S
Cd351       O356   2.504       .  S
Cd351       O352   2.479       .  S
Cd351       O355   2.484       .  S
Cd351       O353   2.478       .  S
C354        O358   1.266       .  A
C354        C545   1.484       .  S
O359        C362   1.263       .  A
O359       Cd364   2.468       .  S
C360        O369   1.265       .  A
C360        O365   1.262       .  A
C360        C375   1.469       .  S
O361        C367   1.263       .  A
O361       Cd364   2.465       .  S
C362        O370   1.264       .  A
C362        C373   1.467       .  S
C363        O368   1.265       .  A
C363        O366   1.267       .  A
C363        C473   1.481       .  S
Cd364       O371   2.476       .  S
Cd364       O370   2.486       .  S
Cd364       O369   2.489       .  S
Cd364       O365   2.477       .  S
Cd364       O368   2.455       .  S
Cd364       O366   2.493       .  S
C367        O371   1.265       .  A
O372        C375   1.262       .  A
C373        O382   1.263       .  A
C373        O378   1.264       .  A
O374       Cd377   2.479       .  S
C375        O383   1.265       .  A
C376        O381   1.267       .  A
C376        O379   1.266       .  A
C376        C457   1.487       .  S
Cd377       O384   2.479       .  S
Cd377       O382   2.465       .  S
Cd377       O378   2.487       .  S
Cd377       O381   2.476       .  S
Cd377       O379   2.495       .  S
C380        C606   1.469   1_455  S
N385        C389   1.358       .  A
N385        C386   1.358       .  A
N385        C497   1.438       .  S
C386        C449   1.483       .  S
C386        C387   1.384       .  A
C387        C388   1.375       .  A
C387        H390   1.082       .  S
C388        C389   1.380       .  A
C388        H391   1.082       .  S
C389        C465   1.477       .  S
O392        C395   1.267       .  A
O392       Cd397   2.519       .  S
C393        O402   1.263       .  A
C393        O398   1.267       .  A
C393        C408   1.471       .  S
C395        O403   1.262       .  A
C395        C406   1.479       .  S
C396        C629   1.468   1_455  S
Cd397       O403   2.492       .  S
Cd397       O401   2.482       .  S
Cd397       O399   2.471       .  S
C400        C441   1.489   1_556  S
O405        C408   1.267       .  A
O405       Cd410   2.496       .  S
C406        O415   1.264       .  A
C406        O411   1.267       .  A
O407        C413   1.266       .  A
O407       Cd410   2.527       .  S
C408        O416   1.262       .  A
C409        O414   1.267       .  A
C409        O412   1.264       .  A
Cd410       O417   2.466       .  S
Cd410       O416   2.473       .  S
Cd410       O415   2.506       .  S
Cd410       O411   2.506       .  S
Cd410       O414   2.481       .  S
Cd410       O412   2.458       .  S
C413        O417   1.261       .  A
C413        C425   1.486       .  S
N418        C422   1.360       .  A
N418        C419   1.357       .  A
N418        C529   1.441       .  S
C419        C481   1.476   1_545  S
C419        C420   1.381       .  A
C420        C421   1.374       .  A
C420        H423   1.082   1_545  S
C421        C422   1.385       .  A
C421        H424   1.082       .  S
C422        C433   1.484       .  S
C425        C426   1.408       .  A
C425        C430   1.408       .  A
C426        C427   1.396       .  A
C426        H435   1.083       .  S
C427        C428   1.400       .  A
C427        H436   1.085       .  S
C428        C434   1.404       .  A
C428        C429   1.414       .  A
C429        C431   1.404       .  A
C429        C430   1.410       .  A
C430        H437   1.085       .  S
C431        C432   1.401       .  A
C431        H438   1.084       .  S
C432        C433   1.405       .  A
C432        H439   1.082       .  S
C433        C434   1.405       .  A
C434        H440   1.085       .  S
C441        C442   1.406   1_554  A
C442        C443   1.402       .  A
C442        H451   1.083       .  S
C443        C444   1.404   1_556  A
C443        H452   1.083       .  S
C444        C450   1.411       .  A
C444        C445   1.414       .  A
C446        H453   1.084       .  S
C447        C448   1.397       .  A
C447        H454   1.083       .  S
C448        C449   1.404       .  A
C448        H455   1.083       .  S
C450        H456   1.084       .  S
C457        C462   1.411       .  A
C458        C459   1.400       .  A
C458        H467   1.083       .  S
C459        C460   1.402   1_556  A
C459        H468   1.084       .  S
C460        C466   1.408       .  A
C461        C463   1.406       .  A
C461        C462   1.410       .  A
C462        H469   1.084       .  S
C463        C464   1.402       .  A
C463        H470   1.084       .  S
C464        C465   1.403       .  A
C464        H471   1.083       .  S
C466        H472   1.085       .  S
C473        C474   1.406       .  A
C473        C478   1.409       .  A
C474        C475   1.395       .  A
C474        H483   1.083       .  S
C475        C476   1.400       .  A
C475        H484   1.085       .  S
C476        C482   1.401       .  A
C476        C477   1.415       .  A
C477        C479   1.406       .  A
C477        C478   1.408       .  A
C478        H485   1.085       .  S
C479        C480   1.402       .  A
C479        H486   1.084       .  S
C480        C481   1.402       .  A
C480        H487   1.083       .  S
C481        C482   1.402       .  A
C482        H488   1.086       .  S
C489        C490   1.404       .  A
C490        C491   1.399       .  A
C490        H499   1.081       .  S
C491        C492   1.403       .  A
C491        H500   1.084       .  S
C492        C498   1.405       .  A
C493        C495   1.404       .  A
C493        C494   1.402       .  A
C494        H501   1.084       .  S
C495        C496   1.398       .  A
C495        H502   1.083       .  S
C496        H503   1.082       .  S
C497        C498   1.405       .  A
C498        H504   1.084       .  S
C505        C506   1.401       .  A
C506        C507   1.396       .  A
C506        H515   1.084       .  S
C507        C508   1.402       .  A
C507        H516   1.083       .  S
C508        C514   1.403       .  A
C509        C511   1.402       .  A
C509        C510   1.405       .  A
C510        H517   1.084       .  S
C511        C512   1.399       .  A
C511        H518   1.084       .  S
C512        H519   1.083       .  S
C513        C514   1.405       .  A
C514        H520   1.084       .  S
C521        C522   1.405       .  A
C521        C526   1.406       .  A
C522        C523   1.398       .  A
C522        H531   1.082       .  S
C523       C1108   1.403       .  A
C523        H532   1.083       .  S
C524       C1107   1.403       .  A
C524        C530   1.405   1_655  A
C524       C1109   1.414       .  A
C525       C1108   1.414       .  A
C525       C1111   1.403       .  A
C525        C526   1.405       .  A
C526        H533   1.084       .  S
C527       C1109   1.403   1_455  A
C527        C528   1.398       .  A
C527        H534   1.083       .  S
C528        C529   1.403       .  A
C528        H535   1.082       .  S
C529        C530   1.405       .  A
C530        H536   1.084       .  S
C537        C538   1.402       .  A
C537        C542   1.403       .  A
C538        C539   1.401       .  A
C538        H547   1.083       .  S
C539        C540   1.405       .  A
C539        H548   1.084       .  S
C540        C546   1.408       .  A
C540        C541   1.414       .  A
C541        C543   1.401       .  A
C541        C542   1.404       .  A
C542        H549   1.085       .  S
C543        C544   1.397       .  A
C543        H550   1.085       .  S
C544        C545   1.406       .  A
C544        H551   1.083       .  S
C545        C546   1.409       .  A
C546        H552   1.085       .  S
C553        C558   1.406       .  A
C554        C555   1.396       .  A
C554        H563   1.083       .  S
C555        C556   1.401       .  A
C555        H564   1.084       .  S
C556        C562   1.404       .  A
C557        C559   1.403       .  A
C557        C558   1.408       .  A
C558        H565   1.084       .  S
C559        C560   1.400       .  A
C559        H566   1.083       .  S
C560        H567   1.083       .  S
C561        C562   1.406   1_554  A
C562        H568   1.084       .  S
C569        C570   1.406       .  A
C569        C574   1.409       .  A
C570        C571   1.399       .  A
C570        H579   1.083       .  S
C571        C572   1.402       .  A
C571        H580   1.083       .  S
C572        C578   1.407       .  A
C572        C573   1.415       .  A
C573        C575   1.403       .  A
C573        C574   1.408       .  A
C574        H581   1.084       .  S
C575        C576   1.398       .  A
C575        H582   1.083       .  S
C576        C577   1.405       .  A
C576        H583   1.084       .  S
C577        C578   1.405       .  A
C578        H584   1.084       .  S
O585        C588   1.264       .  A
O585       Cd590   2.491       .  S
C586        O595   1.263       .  A
C586        O591   1.266       .  A
C586        C601   1.472       .  S
O587        C593   1.265       .  A
O587       Cd590   2.461       .  S
C588        O596   1.263       .  A
C588        C599   1.472       .  S
C589        O594   1.264       .  A
C589        O592   1.265       .  A
C589        C861   1.486       .  S
Cd590       O597   2.477       .  S
Cd590       O596   2.491       .  S
Cd590       O595   2.477       .  S
Cd590       O591   2.495       .  S
Cd590       O594   2.487       .  S
Cd590       O592   2.495       .  S
C593        O597   1.265       .  A
C593        C659   1.466       .  S
O598        C601   1.264       .  A
O598       Cd895   2.491       .  S
C599        O608   1.263       .  A
C599        O604   1.265       .  A
O600        C898   1.265       .  A
O600       Cd603   2.470       .  S
C601        O609   1.263       .  A
C602        O899   1.265       .  A
C602        O897   1.265       .  A
C602        C853   1.484       .  S
Cd603       O890   2.492       .  S
Cd603       O610   2.474       .  S
Cd603       O901   2.483       .  S
Cd603       O608   2.478       .  S
Cd603       O604   2.498       .  S
Cd603       O899   2.477       .  S
Cd603       O897   2.488       .  S
O605        C894   1.266       .  A
O605       Cd895   2.492       .  S
C606        O892   1.265       .  A
C606        O902   1.266       .  A
O607        C894   1.264   1_556  A
O607       Cd895   2.469   1_556  S
O609       Cd895   2.492       .  S
O610        C898   1.265       .  A
N611        C615   1.361       .  A
N611        C612   1.359       .  A
N611        C813   1.443       .  S
C612        C829   1.476       .  S
C612        C613   1.380       .  A
C613        C614   1.373       .  A
C613        H616   1.082       .  S
C614        C615   1.383       .  A
C614        H617   1.082       .  S
C615        C869   1.482   1_545  S
N618        C622   1.354       .  A
N618        C619   1.357       .  A
N618        C781   1.436       .  S
C619        C845   1.482       .  S
C619        C620   1.384       .  A
C620        C621   1.375       .  A
C620        H623   1.082       .  S
C621        C622   1.380       .  A
C621        H624   1.082       .  S
C622        C797   1.472       .  S
O625        C628   1.263       .  A
O625       Cd630   2.493   1_554  S
C626        O635   1.265       .  A
C626        O631   1.265       .  A
C626        C641   1.467       .  S
O627        C633   1.267   1_554  A
O627       Cd630   2.484   1_554  S
C628        O636   1.264       .  A
C628        C639   1.472       .  S
C629        O926   1.263       .  A
C629        O924   1.263       .  A
Cd630       O637   2.473       .  S
Cd630       O636   2.482   1_556  S
Cd630       O927   2.475       .  S
Cd630       O923   2.466       .  S
Cd630       O634   2.490       .  S
Cd630       O632   2.480       .  S
O631       Cd922   2.463       .  S
O632        C921   1.263       .  A
C633        O637   1.265       .  A
C633        C805   1.483       .  S
O634        C921   1.263       .  A
O635       Cd922   2.479       .  S
O638        C641   1.265       .  A
O638       Cd643   2.492       .  S
C639        O648   1.266       .  A
C639        O644   1.263       .  A
O640        C646   1.266       .  A
O640       Cd643   2.461       .  S
C641        O649   1.263       .  A
C642        O647   1.264       .  A
C642        O645   1.264       .  A
C642        C701   1.468       .  S
Cd643       O650   2.492       .  S
Cd643       O649   2.466       .  S
Cd643       O648   2.505       .  S
Cd643       O644   2.473       .  S
Cd643       O647   2.487       .  S
Cd643       O645   2.472       .  S
C646        O650   1.267       .  A
C646        C837   1.483       .  S
O651        C654   1.263       .  A
O651       Cd656   2.467       .  S
C652        O661   1.264       .  A
C652        O657   1.262       .  A
C652        C667   1.469       .  S
O653        C659   1.263       .  A
O653       Cd656   2.461       .  S
C654        O662   1.263       .  A
C654        C665   1.466       .  S
C655        O660   1.265       .  A
C655        O658   1.267       .  A
C655        C765   1.481       .  S
Cd656       O663   2.482       .  S
Cd656       O662   2.484       .  S
Cd656       O661   2.485       .  S
Cd656       O657   2.484       .  S
Cd656       O660   2.456       .  S
Cd656       O658   2.489       .  S
C659        O663   1.265       .  A
O664        C667   1.262       .  A
O664       Cd961   2.474       .  S
C665        O674   1.263       .  A
C665        O670   1.265       .  A
O666        C964   1.265       .  A
O666       Cd669   2.487       .  S
C667        O675   1.265       .  A
C668        O673   1.268   1_554  A
C668        O671   1.266       .  A
C668        C749   1.489       .  S
Cd669       O956   2.477   1_554  S
Cd669       O676   2.476       .  S
Cd669       O967   2.489   1_554  S
Cd669       O674   2.461       .  S
Cd669       O670   2.486       .  S
Cd669       O673   2.497   1_554  S
Cd669       O671   2.489       .  S
C672        O958   1.264       .  A
C672        O968   1.264       .  A
O675       Cd961   2.493       .  S
O676        C964   1.263       .  A
N677        C681   1.357       .  A
N677        C678   1.356       .  A
N677        C789   1.434       .  S
C678        C741   1.484       .  S
C678        C679   1.384       .  A
C679        C680   1.377       .  A
C679        H682   1.082       .  S
C680        C681   1.381       .  A
C680        H683   1.082       .  S
C681        C757   1.481       .  S
O684        C687   1.266       .  A
O684       Cd689   2.522       .  S
C685        O694   1.264       .  A
C685        O690   1.266       .  A
C685        C700   1.473       .  S
O686        C984   1.263   1_554  A
O686       Cd981   2.488   1_554  S
C687        O695   1.263       .  A
C687        C698   1.481       .  S
C688        O985   1.266       .  A
C688        O983   1.264       .  A
Cd689       O978   2.489       .  S
Cd689       O988   2.507       .  S
Cd689       O695   2.500       .  S
Cd689       O986   2.477       .  S
Cd689       O982   2.489       .  S
Cd689       O693   2.489       .  S
Cd689       O691   2.460       .  S
O690       Cd981   2.486   1_554  S
O691        C980   1.263       .  A
C692        O978   1.263       .  A
C692        O988   1.266       .  A
C692        C733   1.488       .  S
O693        C980   1.266       .  A
O694       Cd981   2.491   1_554  S
O696        C984   1.266       .  A
O696       Cd981   2.512       .  S
O697        C700   1.266       .  A
O697       Cd702   2.509       .  S
C698        O707   1.265       .  A
C698        O703   1.267       .  A
O699        C705   1.266       .  A
O699       Cd702   2.524       .  S
C700        O708   1.262       .  A
C701        O706   1.266       .  A
C701        O704   1.264       .  A
Cd702       O709   2.465       .  S
Cd702       O708   2.477       .  S
Cd702       O707   2.506       .  S
Cd702       O703   2.506       .  S
Cd702       O706   2.488       .  S
Cd702       O704   2.464       .  S
C705        O709   1.262       .  A
C705        C717   1.486       .  S
N710        C714   1.360       .  A
N710        C711   1.357   1_545  A
N710        C821   1.440       .  S
C711        C773   1.476       .  S
C711        C712   1.380   1_565  A
C712        C713   1.374       .  A
C712        H715   1.082   1_545  S
C713        C714   1.385       .  A
C713        H716   1.082       .  S
C714        C725   1.485       .  S
C717        C718   1.407       .  A
C717        C722   1.409       .  A
C718        C719   1.396       .  A
C718        H727   1.083       .  S
C719        C720   1.400       .  A
C719        H728   1.085       .  S
C720        C726   1.403       .  A
C720        C721   1.414       .  A
C721        C723   1.404       .  A
C721        C722   1.410       .  A
C722        H729   1.085       .  S
C723        C724   1.401       .  A
C723        H730   1.084       .  S
C724        C725   1.405       .  A
C724        H731   1.082       .  S
C725        C726   1.405       .  A
C726        H732   1.085       .  S
C733        C734   1.406       .  A
C733       C1030   1.408       .  A
C734        C735   1.401       .  A
C734        H743   1.083       .  S
C735        C736   1.403       .  A
C735        H744   1.083       .  S
C736        C742   1.410       .  A
C736        C737   1.415       .  A
C737       C1031   1.402       .  A
C737       C1030   1.408       .  A
C738       C1025   1.409       .  A
C738       C1029   1.407       .  A
C738        H745   1.084       .  S
C739       C1029   1.402       .  A
C739        C740   1.398       .  A
C739        H746   1.083       .  S
C740        C741   1.404       .  A
C740        H747   1.083       .  S
C741       C1034   1.407       .  A
C742       C1033   1.406       .  A
C742        H748   1.084       .  S
C749       C1042   1.406   1_554  A
C749        C754   1.410       .  A
C750       C1041   1.406       .  A
C750        C751   1.397       .  A
C750        H759   1.083       .  S
C751        C752   1.401       .  A
C751        H760   1.084       .  S
C752        C758   1.405       .  A
C752       C1045   1.415       .  A
C753       C1044   1.415       .  A
C753        C755   1.404       .  A
C753        C754   1.410       .  A
C754        H761   1.084       .  S
C755        C756   1.401       .  A
C755        H762   1.084       .  S
C756        C757   1.404       .  A
C756        H763   1.083       .  S
C757       C1050   1.404       .  A
C758       C1049   1.402       .  A
C758        H764   1.085       .  S
C765        C766   1.406       .  A
C765        C770   1.409       .  A
C766        C767   1.395       .  A
C766        H775   1.083       .  S
C767        C768   1.400       .  A
C767        H776   1.085       .  S
C768        C774   1.401       .  A
C768        C769   1.415       .  A
C769        C771   1.406       .  A
C769        C770   1.408       .  A
C770        H777   1.085       .  S
C771        C772   1.402       .  A
C771        H778   1.084       .  S
C772        C773   1.402       .  A
C772        H779   1.083       .  S
C773        C774   1.402       .  A
C774        H780   1.086       .  S
C781        C782   1.402   1_556  A
C781       C1078   1.403       .  A
C782        C783   1.399       .  A
C782        H791   1.082       .  S
C783        C784   1.404       .  A
C783        H792   1.083       .  S
C784        C790   1.403       .  A
C784       C1077   1.414   1_554  A
C785       C1076   1.414       .  A
C785        C787   1.403       .  A
C785        C786   1.404       .  A
C786       C1073   1.404       .  A
C786        H793   1.084       .  S
C787        C788   1.398       .  A
C787        H794   1.083       .  S
C788       C1081   1.402       .  A
C788        H795   1.082       .  S
C789       C1080   1.399   1_554  A
C789        C790   1.404       .  A
C790        H796   1.084       .  S
C797        C798   1.401   1_556  A
C797       C1094   1.403       .  A
C798        C799   1.397       .  A
C798        H807   1.083       .  S
C799        C800   1.403   1_554  A
C799        H808   1.083       .  S
C800        C806   1.405       .  A
C800       C1093   1.415       .  A
C801       C1092   1.415       .  A
C801        C803   1.402       .  A
C801        C802   1.405       .  A
C802       C1089   1.402       .  A
C802        H809   1.084       .  S
C803        C804   1.399       .  A
C803        H810   1.084       .  S
C804       C1097   1.407       .  A
C804        H811   1.083       .  S
C805       C1096   1.407       .  A
C805        C806   1.406       .  A
C806        H812   1.084   1_556  S
C813        C814   1.405       .  A
C813        C818   1.405       .  A
C814        C815   1.400       .  A
C814        H823   1.082       .  S
C815        H824   1.084       .  S
C816        C822   1.406       .  A
C817        C818   1.404       .  A
C818        H825   1.084       .  S
C819        C820   1.397       .  A
C819        H826   1.083   1_545  S
C820        C821   1.403       .  A
C820        H827   1.082       .  S
C821        C822   1.406       .  A
C822        H828   1.084       .  S
C829        C830   1.402       .  A
C829        C834   1.402       .  A
C830        C831   1.402       .  A
C830        H839   1.083       .  S
C831        C832   1.406       .  A
C831        H840   1.084       .  S
C832        C838   1.408       .  A
C832        C833   1.415       .  A
C833        C835   1.400       .  A
C833        C834   1.402       .  A
C834        H841   1.086       .  S
C835        C836   1.396       .  A
C835        H842   1.085       .  S
C836        C837   1.406       .  A
C836        H843   1.083       .  S
C837        C838   1.409       .  A
C838        H844   1.085       .  S
C845       C1138   1.404       .  A
C845        C850   1.406       .  A
C846       C1137   1.404       .  A
C846        C847   1.396       .  A
C846        H855   1.083       .  S
C847        C848   1.401       .  A
C847        H856   1.084       .  S
C848        C854   1.405       .  A
C848       C1141   1.415       .  A
C849       C1140   1.414       .  A
C849        C851   1.403   1_556  A
C849        C850   1.409       .  A
C850        H857   1.084   1_556  S
C851        C852   1.401       .  A
C851        H858   1.083       .  S
C852       C1145   1.406       .  A
C852        H859   1.083       .  S
C853       C1144   1.406       .  A
C853        C854   1.407       .  A
C854        H860   1.084       .  S
C861        C862   1.406       .  A
C861        C866   1.408       .  A
C862        C863   1.400       .  A
C862        H871   1.083       .  S
C863        C864   1.402       .  A
C863        H872   1.083       .  S
C864        C870   1.408       .  A
C864        C865   1.415       .  A
C865        C867   1.402       .  A
C865        C866   1.407       .  A
C866        H873   1.084       .  S
C867        C868   1.398       .  A
C867        H874   1.083       .  S
C868        C869   1.405       .  A
C868        H875   1.084       .  S
C869        C870   1.405       .  A
C870        H876   1.084       .  S
O877        C880   1.264       .  A
O877       Cd882   2.492       .  S
C878        O887   1.263       .  A
C878        O883   1.266       .  A
C878        C893   1.471       .  S
O879        C885   1.265       .  A
O879       Cd882   2.467       .  S
C880        O888   1.262       .  A
C880        C891   1.472       .  S
C881        O886   1.265       .  A
C881        O884   1.266       .  A
C881       C1153   1.486       .  S
Cd882       O889   2.469       .  S
Cd882       O888   2.493       .  S
Cd882       O887   2.480       .  S
Cd882       O883   2.493       .  S
Cd882       O886   2.489       .  S
Cd882       O884   2.490       .  S
C885        O889   1.265       .  A
C885        C951   1.466       .  S
O890        C893   1.265       .  A
C891        O900   1.263       .  A
C891        O896   1.265       .  A
O892       Cd895   2.474       .  S
C893        O901   1.263       .  A
C894       C1145   1.484       .  S
Cd895       O902   2.474       .  S
Cd895       O900   2.481   1_554  S
Cd895       O896   2.498   1_554  S
N903        C907   1.361       .  A
N903        C904   1.359       .  A
N903       C1105   1.443       .  S
C904       C1121   1.477       .  S
C904        C905   1.380       .  A
C905        C906   1.373       .  A
C905        H908   1.082       .  S
C906        C907   1.384       .  A
C906        H909   1.082       .  S
C907       C1161   1.483   1_545  S
N910        C914   1.356       .  A
N910        C911   1.359       .  A
N910       C1073   1.442       .  S
C911       C1137   1.481       .  S
C911        C912   1.384       .  A
C912        C913   1.374       .  A
C912        H915   1.082       .  S
C913        C914   1.379       .  A
C913        H916   1.082       .  S
C914       C1089   1.471       .  S
O917        C920   1.263       .  A
O917       Cd922   2.494       .  S
C918        O927   1.265       .  A
C918        O923   1.266       .  A
C918        C933   1.467       .  S
O919        C925   1.267       .  A
O919       Cd922   2.477       .  S
C920        O928   1.265       .  A
C920        C931   1.474       .  S
Cd922       O929   2.471       .  S
Cd922       O928   2.487       .  S
Cd922       O926   2.492       .  S
Cd922       O924   2.473       .  S
C925        O929   1.265       .  A
C925       C1097   1.482       .  S
O930        C933   1.264       .  A
O930       Cd935   2.485       .  S
C931        O940   1.266       .  A
C931        O936   1.263       .  A
O932        C938   1.266       .  A
O932       Cd935   2.470       .  S
C933        O941   1.262       .  A
C934        O939   1.263       .  A
C934        O937   1.264       .  A
C934        C993   1.468       .  S
Cd935       O942   2.485       .  S
Cd935       O941   2.467       .  S
Cd935       O940   2.504       .  S
Cd935       O936   2.479       .  S
Cd935       O939   2.484       .  S
Cd935       O937   2.478       .  S
C938        O942   1.266       .  A
C938       C1129   1.484       .  S
O943        C946   1.263       .  A
O943       Cd948   2.468       .  S
C944        O953   1.265       .  A
C944        O949   1.262       .  A
C944        C959   1.469       .  S
O945        C951   1.263       .  A
O945       Cd948   2.465       .  S
C946        O954   1.264       .  A
C946        C957   1.467       .  S
C947        O952   1.265       .  A
C947        O950   1.267       .  A
C947       C1057   1.481       .  S
Cd948       O955   2.476       .  S
Cd948       O954   2.486       .  S
Cd948       O953   2.489       .  S
Cd948       O949   2.477       .  S
Cd948       O952   2.455       .  S
Cd948       O950   2.493       .  S
C951        O955   1.265       .  A
O956        C959   1.262       .  A
C957        O966   1.263       .  A
C957        O962   1.264       .  A
O958       Cd961   2.479       .  S
C959        O967   1.265       .  A
C960        O965   1.267       .  A
C960        O963   1.266       .  A
C960       C1041   1.487       .  S
Cd961       O968   2.479       .  S
Cd961       O966   2.465       .  S
Cd961       O962   2.487       .  S
Cd961       O965   2.476       .  S
Cd961       O963   2.495       .  S
N969        C973   1.358       .  A
N969        C970   1.358       .  A
N969       C1081   1.438       .  S
C970       C1033   1.483       .  S
C970        C971   1.384       .  A
C971        C972   1.375       .  A
C971        H974   1.082       .  S
C972        C973   1.380       .  A
C972        H975   1.082       .  S
C973       C1049   1.477       .  S
O976        C979   1.267       .  A
O976       Cd981   2.519       .  S
C977        O986   1.263       .  A
C977        O982   1.267       .  A
C977        C992   1.471       .  S
C979        O987   1.262       .  A
C979        C990   1.479       .  S
Cd981       O987   2.492       .  S
Cd981       O985   2.482       .  S
Cd981       O983   2.471       .  S
C984       C1025   1.489   1_556  S
O989        C992   1.267       .  A
O989       Cd994   2.496       .  S
C990        O999   1.264       .  A
C990        O995   1.267       .  A
O991        C997   1.266       .  A
O991       Cd994   2.527       .  S
C992       O1000   1.262       .  A
C993        O998   1.267       .  A
C993        O996   1.264       .  A
Cd994      O1001   2.466       .  S
Cd994      O1000   2.473       .  S
Cd994       O999   2.506       .  S
Cd994       O995   2.506       .  S
Cd994       O998   2.481       .  S
Cd994       O996   2.458       .  S
C997       O1001   1.261       .  A
C997       C1009   1.486       .  S
N1002      C1006   1.360       .  A
N1002      C1003   1.357       .  A
N1002      C1113   1.441       .  S
C1003      C1065   1.476   1_545  S
C1003      C1004   1.381       .  A
C1004      C1005   1.374       .  A
C1004      H1007   1.082   1_545  S
C1005      C1006   1.385       .  A
C1005      H1008   1.082       .  S
C1006      C1017   1.484       .  S
C1009      C1010   1.408       .  A
C1009      C1014   1.408       .  A
C1010      C1011   1.396       .  A
C1010      H1019   1.083       .  S
C1011      C1012   1.400       .  A
C1011      H1020   1.085       .  S
C1012      C1018   1.404       .  A
C1012      C1013   1.414       .  A
C1013      C1015   1.404       .  A
C1013      C1014   1.410       .  A
C1014      H1021   1.085       .  S
C1015      C1016   1.401       .  A
C1015      H1022   1.084       .  S
C1016      C1017   1.405       .  A
C1016      H1023   1.082       .  S
C1017      C1018   1.405       .  A
C1018      H1024   1.085       .  S
C1025      C1026   1.406   1_554  A
C1026      C1027   1.402       .  A
C1026      H1035   1.083       .  S
C1027      C1028   1.404   1_556  A
C1027      H1036   1.083       .  S
C1028      C1034   1.411       .  A
C1028      C1029   1.414       .  A
C1030      H1037   1.084       .  S
C1031      C1032   1.397       .  A
C1031      H1038   1.083       .  S
C1032      C1033   1.404       .  A
C1032      H1039   1.083       .  S
C1034      H1040   1.084       .  S
C1041      C1046   1.411       .  A
C1042      C1043   1.400       .  A
C1042      H1051   1.083       .  S
C1043      C1044   1.402   1_556  A
C1043      H1052   1.084       .  S
C1044      C1050   1.408       .  A
C1045      C1047   1.406       .  A
C1045      C1046   1.410       .  A
C1046      H1053   1.084       .  S
C1047      C1048   1.402       .  A
C1047      H1054   1.084       .  S
C1048      C1049   1.403       .  A
C1048      H1055   1.083       .  S
C1050      H1056   1.085       .  S
C1057      C1058   1.406       .  A
C1057      C1062   1.409       .  A
C1058      C1059   1.395       .  A
C1058      H1067   1.083       .  S
C1059      C1060   1.400       .  A
C1059      H1068   1.085       .  S
C1060      C1066   1.401       .  A
C1060      C1061   1.415       .  A
C1061      C1063   1.406       .  A
C1061      C1062   1.408       .  A
C1062      H1069   1.085       .  S
C1063      C1064   1.402       .  A
C1063      H1070   1.084       .  S
C1064      C1065   1.402       .  A
C1064      H1071   1.083       .  S
C1065      C1066   1.402       .  A
C1066      H1072   1.086       .  S
C1073      C1074   1.404       .  A
C1074      C1075   1.399       .  A
C1074      H1083   1.081       .  S
C1075      C1076   1.403       .  A
C1075      H1084   1.084       .  S
C1076      C1082   1.405       .  A
C1077      C1079   1.404       .  A
C1077      C1078   1.402       .  A
C1078      H1085   1.084       .  S
C1079      C1080   1.398       .  A
C1079      H1086   1.083       .  S
C1080      H1087   1.082       .  S
C1081      C1082   1.405       .  A
C1082      H1088   1.084       .  S
C1089      C1090   1.401       .  A
C1090      C1091   1.396       .  A
C1090      H1099   1.084       .  S
C1091      C1092   1.402       .  A
C1091      H1100   1.083       .  S
C1092      C1098   1.403       .  A
C1093      C1095   1.402       .  A
C1093      C1094   1.405       .  A
C1094      H1101   1.084       .  S
C1095      C1096   1.399       .  A
C1095      H1102   1.084       .  S
C1096      H1103   1.083       .  S
C1097      C1098   1.405       .  A
C1098      H1104   1.084       .  S
C1105      C1106   1.405       .  A
C1105      C1110   1.406       .  A
C1106      C1107   1.398       .  A
C1106      H1115   1.082       .  S
C1107      H1116   1.083       .  S
C1108      C1114   1.405       .  A
C1109      C1110   1.405       .  A
C1110      H1117   1.084       .  S
C1111      C1112   1.398       .  A
C1111      H1118   1.083       .  S
C1112      C1113   1.403       .  A
C1112      H1119   1.082       .  S
C1113      C1114   1.405       .  A
C1114      H1120   1.084       .  S
C1121      C1122   1.402       .  A
C1121      C1126   1.403       .  A
C1122      C1123   1.401       .  A
C1122      H1131   1.083       .  S
C1123      C1124   1.405       .  A
C1123      H1132   1.084       .  S
C1124      C1130   1.408       .  A
C1124      C1125   1.414       .  A
C1125      C1127   1.401       .  A
C1125      C1126   1.404       .  A
C1126      H1133   1.085       .  S
C1127      C1128   1.397       .  A
C1127      H1134   1.085       .  S
C1128      C1129   1.406       .  A
C1128      H1135   1.083       .  S
C1129      C1130   1.409       .  A
C1130      H1136   1.085       .  S
C1137      C1142   1.406       .  A
C1138      C1139   1.396       .  A
C1138      H1147   1.083       .  S
C1139      C1140   1.401       .  A
C1139      H1148   1.084       .  S
C1140      C1146   1.404       .  A
C1141      C1143   1.403       .  A
C1141      C1142   1.408       .  A
C1142      H1149   1.084       .  S
C1143      C1144   1.400       .  A
C1143      H1150   1.083       .  S
C1144      H1151   1.083       .  S
C1145      C1146   1.406   1_554  A
C1146      H1152   1.084       .  S
C1153      C1154   1.406       .  A
C1153      C1158   1.409       .  A
C1154      C1155   1.399       .  A
C1154      H1163   1.083       .  S
C1155      C1156   1.402       .  A
C1155      H1164   1.083       .  S
C1156      C1162   1.407       .  A
C1156      C1157   1.415       .  A
C1157      C1159   1.403       .  A
C1157      C1158   1.408       .  A
C1158      H1165   1.084       .  S
C1159      C1160   1.398       .  A
C1159      H1166   1.083       .  S
C1160      C1161   1.405       .  A
C1160      H1167   1.084       .  S
C1161      C1162   1.405       .  A
C1162      H1168   1.084       .  S
