geometry optimzed in LAMMPS
_audit_creation_date              2020-12-01 
_audit_creation_method            'lammps2cif' 
_symmetry_space_group_name_H-M    'P1' 
_symmetry_Int_Tables_number       1 
_symmetry_cell_setting            triclinic 
loop_ 
_symmetry_equiv_pos_as_xyz 
  x,y,z 
_cell_length_a                    38.91294878 
_cell_length_b                    38.755043753183195 
_cell_length_c                    38.789497579581756 
_cell_angle_alpha                 87.20396284013506 
_cell_angle_beta                  89.58747356269602 
_cell_angle_gamma                 91.42082878519511 
loop_ 
_atom_site_label 
_atom_site_type_symbol 
_atom_site_fract_x 
_atom_site_fract_y 
_atom_site_fract_z 
_atom_site_charge 
C1          C  0.45487358  0.15060814  0.04345480     0.30700
C2          C  0.00141905  0.13471405  0.49182650     0.30700
C3          C  0.43754479  0.12718338  0.51329191    -0.05500
C4          C  0.47072054  0.18115219  0.02354055    -0.06300
C5          C  0.98377296  0.13241538  0.05582677    -0.06100
C6          C  0.46307725  0.11757017  0.48924897    -0.05500
C7          C  0.99186539  0.17385403  0.49342741    -0.06300
C8          C  0.00861158  0.12354604  0.03097485    -0.06100
C9          C  0.44757308  0.11796743  0.45763888    -0.31500
N10         N  0.41556652  0.12927959  0.46035332     0.15000
C11         C  0.40873403  0.13467504  0.49369759    -0.31500
H12         H  0.38648776  0.14818101  0.50229822     0.16900
C13         C  0.00788990  0.20588059  0.48680492    -0.30500
N14         N  0.49030339  0.23116635  0.00397637     0.13700
C15         C  0.46798867  0.21556326  0.02654922    -0.30500
C16         C  0.04055121  0.12862199  0.04588770    -0.30800
N17         N  0.03616641  0.14083618  0.07722881     0.14200
H18         H  0.06547990  0.12656820  0.03383985     0.16800
C19         C  0.00248313  0.14262122  0.08378668    -0.30800
H20         H  0.99281411  0.15490321  0.10617526     0.16800
H21         H  0.45203913  0.22817432  0.04479880     0.16800
H22         H  0.46045163  0.11653318  0.43301113     0.16900
H23         H  0.03133762  0.21044534  0.47197922     0.16800
C24         C  0.03815613  0.34554199  0.47008812     0.30700
C25         C  0.48755375  0.36297814  0.01402731     0.30700
C26         C  0.50700311  0.36474356  0.45331783    -0.05500
C27         C  0.02367478  0.31533388  0.49162970    -0.06300
C28         C  0.05122963  0.36796938  0.99788249    -0.06100
C29         C  0.48042513  0.37550790  0.97689106    -0.05500
C30         C  0.49335558  0.32368372  0.00903402    -0.06300
C31         C  0.52480502  0.37536638  0.02147886    -0.06100
C32         C  0.45031464  0.36814001  0.46247510    -0.31500
N33         N  0.45533351  0.35763923  0.43033506     0.15000
C34         C  0.48904386  0.35625994  0.42431612    -0.31500
H35         H  0.49912332  0.34473045  0.40169333     0.16900
C36         C  0.47971749  0.29153927  0.01925968    -0.30500
N37         N  0.49644273  0.26704925  0.00149573     0.13700
C38         C  0.02500023  0.28104306  0.48687689    -0.30500
C39         C  0.04275385  0.37089883  0.05485311    -0.30800
N40         N  0.07512885  0.36132830  0.04932338     0.14200
H41         H  0.03085593  0.37055610  0.08017054     0.16800
C42         C  0.08080555  0.36026180  0.01535176    -0.30800
H43         H  0.10349869  0.34923846  0.00468398     0.16800
H44         H  0.04052582  0.26888520  0.46793406     0.16800
H45         H  0.42525743  0.36862708  0.47461969     0.16900
H46         H  0.45876915  0.28662901  0.03744778     0.16800
C47         C  0.14736432  0.46692391  0.04957249     0.30700
C48         C  0.12861808  0.00983454  0.49740993     0.30700
C49         C  0.12749971  0.99301611  0.05986509    -0.05500
C50         C  0.17706911  0.48634864  0.03245508    -0.06300
C51         C  0.13431344  0.44955869  0.51492116    -0.06100
C52         C  0.11788181  0.01834445  0.03394274    -0.05500
C53         C  0.16774485  0.00727837  0.50670609    -0.06300
C54         C  0.12618701  0.47423711  0.48825648    -0.06100
C55         C  0.12004888  0.04958063  0.04895926    -0.31500
N56         N  0.13201603  0.04549032  0.08113655     0.15000
C57         C  0.13679003  0.01156949  0.08832042    -0.31500
H58         H  0.15035797  0.00154655  0.11074033     0.16900
C59         C  0.19973814  0.01673918  0.49301309    -0.30500
N60         N  0.22636779  0.50101191  0.00920715     0.13700
C61         C  0.21130497  0.48162383  0.03474126    -0.30500
C62         C  0.13293054  0.45901403  0.45741676    -0.30800
N63         N  0.14370488  0.42679651  0.46430008     0.14200
H64         H  0.13228289  0.47118859  0.43174650     0.16800
C65         C  0.14472473  0.42081376  0.49852086    -0.30800
H66         H  0.15550516  0.39766985  0.51015146     0.16800
H67         H  0.22409741  0.46380382  0.05240122     0.16800
H68         H  0.11864569  0.07462700  0.03558978     0.16900
H69         H  0.20437679  0.03354761  0.47035916     0.16800
C70         C  0.35788492  0.48989665  0.01615319     0.30700
C71         C  0.33910240  0.03415152  0.46598822     0.30700
C72         C  0.37415008  0.48539763  0.98006804    -0.05500
C73         C  0.31865281  0.49277933  0.00701708    -0.06300
C74         C  0.36907398  0.02870636  0.02206177    -0.06100
C75         C  0.36544752  0.50505790  0.45130423    -0.05500
C76         C  0.30913387  0.01488927  0.48270872    -0.06300
C77         C  0.36021195  0.05334771  0.99547721    -0.06100
C78         C  0.35789755  0.48614789  0.42274408    -0.31500
N79         N  0.36396959  0.45254404  0.43015972     0.15000
C80         C  0.37564427  0.44888686  0.46231550    -0.31500
H81         H  0.37743399  0.42380331  0.47542941     0.16900
C82         C  0.27506362  0.02006657  0.48051218    -0.30500
N83         N  0.26260359  0.00202545  0.00301546     0.13700
C84         C  0.28654024  0.48307354  0.02048398    -0.30500
C85         C  0.35084286  0.08236878  0.01217523    -0.30800
N86         N  0.35269053  0.07628544  0.04623320     0.14200
H87         H  0.33901029  0.10521428  0.00114794     0.16800
C88         C  0.36377291  0.04420847  0.05289030    -0.30800
H89         H  0.36428975  0.03181189  0.07848045     0.16800
H90         H  0.28189973  0.46601566  0.04295694     0.16800
H91         H  0.34373129  0.49534400  0.40037515     0.16900
H92         H  0.26257074  0.03920434  0.46405051     0.16800
C93         C  0.48594177  0.48487375  0.13879812     0.30700
C94         C  0.03681233  0.04102837  0.15680431     0.30700
C95         C  0.48140249  0.02155055  0.12248662    -0.05500
C96         C  0.49196537  0.49090350  0.17831681    -0.06300
C97         C  0.52223719  0.47853555  0.12597846    -0.06100
C98         C  0.50499958  0.04818319  0.13205178    -0.05500
C99         C  0.01820650  0.02255051  0.18639655    -0.06300
C100        C  0.04740797  0.50631359  0.13712923    -0.06100
C101        C  0.48471614  0.07580967  0.13970568    -0.31500
N102        N  0.45130987  0.06776311  0.13420039     0.15000
C103        C  0.44922976  0.03591779  0.12228476    -0.31500
H104        H  0.42499753  0.02224617  0.11933812     0.16900
C105        C  0.02107339  0.02456565  0.22096377    -0.30500
N106        N  0.49682280  0.99949257  0.23420292     0.13700
C107        C  0.47997493  0.47987485  0.21090989    -0.30500
C108        C  0.07573060  0.48663601  0.14514077    -0.30800
N109        N  0.06852470  0.45337007  0.13969632     0.14200
H110        H  0.09803562  0.49490823  0.15932319     0.16800
C111        C  0.03658159  0.45051589  0.12752552    -0.30800
H112        H  0.02390793  0.42581833  0.12434271     0.16800
H113        H  0.45991982  0.46052036  0.21622103     0.16800
H114        H  0.49328051  0.09799921  0.15352022     0.16900
H115        H  0.03815628  0.04171656  0.23430464     0.16800
C116        C  0.00413925  0.00693094  0.36811059     0.30700
C117        C  0.45671274  0.45757381  0.35202448     0.30700
C118        C  0.46748560  0.01183477  0.37950761    -0.05500
C119        C  0.00030333  0.00006342  0.32871004    -0.06300
C120        C  0.01272654  0.47117303  0.38745509    -0.06100
C121        C  0.44301852  0.98538461  0.37123150    -0.05500
C122        C  0.47461002  0.47552525  0.32164037    -0.06300
C123        C  0.98867601  0.44470395  0.37831354    -0.06100
C124        C  0.41299809  0.00200788  0.36380947    -0.31500
N125        N  0.41786829  0.03611214  0.36642391     0.15000
C126        C  0.45018454  0.04259702  0.37634620    -0.31500
H127        H  0.46112254  0.06841183  0.37739354     0.16900
C128        C  0.47121808  0.47212531  0.28729194    -0.30500
N129        N  0.49349110  0.49458445  0.27139073     0.13700
C130        C  0.01205295  0.01285588  0.29674799    -0.30500
C131        C  0.00845940  0.41657423  0.37131743    -0.30800
N132        N  0.04190415  0.42448050  0.37653184     0.14200
H133        H  0.99962185  0.39413932  0.35804148     0.16800
C134        C  0.04454134  0.45661671  0.38768875    -0.30800
H135        H  0.06881770  0.47055040  0.38966261     0.16800
H136        H  0.03052066  0.03393869  0.29233057     0.16800
H137        H  0.39067808  0.99097352  0.35172012     0.16900
H138        H  0.45387103  0.45450513  0.27485108     0.16800
O139        O  0.39419534  0.30734605  0.34111939    -0.84600
O140        O  0.38682835  0.35797815  0.28709380    -0.81700
C141        C  0.37576080  0.38551087  0.27283793     0.98800
O142        O  0.36849328  0.41052144  0.29066919    -0.81700
O143        O  0.31063014  0.38820457  0.33006238    -0.84400
C144        C  0.29394398  0.37288926  0.35482711     1.03400
O145        O  0.30849860  0.36489281  0.38316605    -0.77100
O146        O  0.34711889  0.30853665  0.37335458    -0.77300
C147        C  0.36808329  0.29219303  0.35583343     1.03300
O148        O  0.43766631  0.35812940  0.37431691    -0.84600
O149        O  0.43340158  0.40504390  0.32482937    -0.81700
C150        C  0.42804133  0.43126487  0.34262626     0.98900
O151        O  0.39776935  0.43701335  0.35198952    -0.81700
O152        O  0.33680121  0.42693635  0.38431487    -0.84300
C153        C  0.35511136  0.42372842  0.41052819     1.03300
O154        O  0.36728330  0.39492940  0.41854373    -0.77100
O155        O  0.40115909  0.33786569  0.41356272    -0.77300
C156        C  0.43021952  0.35046596  0.40511421     1.03300
Cr157      Cr  0.40979036  0.35763520  0.33312279     1.93700
Cr158      Cr  0.35490047  0.41249466  0.33982444     1.93200
Cr159      Cr  0.35692406  0.35306619  0.39396165     1.39100
O160        O  0.37330023  0.37322953  0.35479797    -1.22400
O161        O  0.31437923  0.17956110  0.39029497    -0.84600
O162        O  0.27490428  0.11814312  0.41061703    -0.81700
C163        C  0.25912418  0.10699189  0.38478358     0.98800
O164        O  0.27567276  0.09863696  0.35869477    -0.81700
O165        O  0.33108435  0.09109866  0.31422799    -0.84400
C166        C  0.34341841  0.11849093  0.29886938     1.03400
O167        O  0.35667082  0.14252624  0.31537911    -0.77100
O168        O  0.36753076  0.18302008  0.36994853    -0.77300
C169        C  0.33945446  0.19728240  0.37675736     1.03300
O170        O  0.36817765  0.15426212  0.43323055    -0.84600
O171        O  0.33650420  0.09338941  0.44431077    -0.81100
C172        C  0.32855447  0.06254558  0.43901708     0.98900
O173        O  0.31095921  0.05615214  0.41237466    -0.81700
O174        O  0.36242486  0.05233719  0.37027437    -0.84300
C175        C  0.39201128  0.06065262  0.36045729     1.03300
O176        O  0.39877871  0.09010412  0.34654511    -0.77100
O177        O  0.40350903  0.12568215  0.40271367    -0.77300
C178        C  0.39514429  0.13732159  0.43099702     1.03300
Cr179      Cr  0.32387377  0.13506252  0.41663172     1.93700
Cr180      Cr  0.32107222  0.07789207  0.36448469     1.93200
Cr181      Cr  0.37860899  0.13434921  0.36001673     1.39100
O182        O  0.34039306  0.11637878  0.37934821    -1.22400
O183        O  0.06979899  0.15266414  0.37919222    -0.84600
O184        O  0.06391109  0.09508790  0.34195281    -0.81700
C185        C  0.09374514  0.08789109  0.33133858     0.98800
O186        O  0.11606263  0.07707918  0.35198401    -0.81700
O187        O  0.15369832  0.07030331  0.40987470    -0.84400
C188        C  0.16502073  0.10038008  0.41579042     1.03400
O189        O  0.14523531  0.12278013  0.42620388    -0.77100
O190        O  0.08811976  0.16058788  0.43159833    -0.77300
C191        C  0.08142791  0.17228004  0.40138335     1.03300
O192        O  0.02358493  0.12573504  0.43261776    -0.84600
O193        O  0.02055129  0.06196189  0.39506814    -0.81700
C194        C  0.03048707  0.03505086  0.38067344     0.98900
O195        O  0.06272268  0.03067970  0.37756973    -0.81700
O196        O  0.10054893  0.02711148  0.44229705    -0.84300
C197        C  0.11584189  0.03678180  0.46920504     1.03300
O198        O  0.11959870  0.06908398  0.47337732    -0.77100
O199        O  0.05591405  0.10738778  0.47542398    -0.77300
C200        C  0.02873134  0.12225844  0.46512951     1.03300
Cr201      Cr  0.04741373  0.10713466  0.38964610     1.93700
Cr202      Cr  0.10582191  0.05427486  0.39712702     1.93200
Cr203      Cr  0.10043173  0.11254289  0.44867968     1.39100
O204        O  0.08409633  0.09091729  0.41223879    -1.22400
O205        O  0.10724606  0.32409876  0.32431842    -0.84600
O206        O  0.08851586  0.28332376  0.38538642    -0.81700
C207        C  0.11401162  0.26692883  0.39701734     0.98800
O208        O  0.14060719  0.28298500  0.40616178    -0.81700
O209        O  0.18755777  0.33765331  0.41009693    -0.84400
C210        C  0.20153515  0.34953542  0.38201572     1.03400
O211        O  0.18428538  0.36440143  0.35856456    -0.77100
O212        O  0.12762181  0.37768352  0.31992954    -0.77300
C213        C  0.12093032  0.34926129  0.30636547     1.03300
O214        O  0.06725832  0.37833476  0.35023978    -0.84600
O215        O  0.05799387  0.34438122  0.41105332    -0.81700
C216        C  0.06445935  0.33620750  0.44208216     0.98900
O217        O  0.09169362  0.31979008  0.44900525    -0.81700
O218        O  0.13587997  0.37107093  0.44979701    -0.84300
C219        C  0.14708457  0.40045525  0.44063727     1.03300
O220        O  0.15953375  0.40668237  0.41096885    -0.77100
O221        O  0.09999879  0.41321628  0.37813839    -0.77300
C222        C  0.07079721  0.40484821  0.36746641     1.03300
Cr223      Cr  0.08324236  0.33298285  0.36892661     1.93700
Cr224      Cr  0.13816240  0.32905475  0.42543636     1.93200
Cr225      Cr  0.14128439  0.38742705  0.36803329     1.39100
O226        O  0.12177114  0.34894971  0.38697302    -1.22400
O227        O  0.17132959  0.39239047  0.19631017    -0.84600
O228        O  0.21112158  0.41770972  0.13762581    -0.81700
C229        C  0.22973972  0.39410530  0.12683375     0.98800
O230        O  0.21617989  0.36644552  0.11708463    -0.81700
O231        O  0.16471536  0.31624975  0.10707244    -0.84400
C232        C  0.15258790  0.29969450  0.13379059     1.03400
O233        O  0.13772515  0.31483917  0.15741177    -0.77100
O234        O  0.11993238  0.36693339  0.19748991    -0.77300
C235        C  0.14713291  0.37596193  0.21282592     1.03300
O236        O  0.11481134  0.42899086  0.16867546    -0.84600
O237        O  0.14817871  0.44572876  0.10939848    -0.81700
C238        C  0.15808462  0.44119659  0.07901966     0.98900
O239        O  0.17773569  0.41614889  0.07371648    -0.81700
O240        O  0.12986166  0.36930242  0.06738690    -0.84300
C241        C  0.10095996  0.35647928  0.07435301     1.03300
O242        O  0.09476593  0.34094291  0.10303869    -0.77100
O243        O  0.08283355  0.39609069  0.13799268    -0.77300
C244        C  0.08910733  0.42497412  0.14974051     1.03300
Cr245      Cr  0.16121712  0.41841974  0.15172974     1.93700
Cr246      Cr  0.17086173  0.36740915  0.09457543     1.93200
Cr247      Cr  0.11172834  0.35643479  0.14814555     1.39100
O248        O  0.14881623  0.37987997  0.13206611    -1.22400
O249        O  0.40076748  0.33780228  0.06838253    -0.84600
O250        O  0.34287189  0.37378909  0.07899899    -0.81700
C251        C  0.32397300  0.39338501  0.09541704     0.98800
O252        O  0.33548994  0.42201709  0.10517917    -0.81700
O253        O  0.37715479  0.40930815  0.16064188    -0.84400
C254        C  0.40162315  0.39605368  0.17747543     1.03400
O255        O  0.43048213  0.39382592  0.16345249    -0.77100
O256        O  0.41631207  0.33885895  0.12243458    -0.77300
C257        C  0.40330362  0.32289031  0.09770371     1.03300
O258        O  0.43382165  0.39298974  0.03091739    -0.84600
O259        O  0.36876852  0.43066127  0.03681946    -0.81700
C260        C  0.37045372  0.46220497  0.04402000     0.98900
O261        O  0.38382334  0.47010841  0.07272719    -0.81700
O262        O  0.42706100  0.46091451  0.13360743    -0.84300
C263        C  0.45882587  0.45699474  0.12730498     1.03300
O264        O  0.46778738  0.43053683  0.11112295    -0.77100
O265        O  0.46403215  0.36804598  0.07191271    -0.77300
C266        C  0.46001640  0.37534628  0.04013863     1.03300
Cr267      Cr  0.38822151  0.38611566  0.05693593     1.93700
Cr268      Cr  0.38323289  0.43778364  0.11599603     1.93200
Cr269      Cr  0.44152138  0.38474798  0.11507252     1.39100
O270        O  0.40467243  0.40366703  0.09542638    -1.22400
O271        O  0.17999946  0.11389791  0.18314644    -0.84600
O272        O  0.11844009  0.09360185  0.22186682    -0.81700
C273        C  0.10750218  0.11963655  0.23671212     0.98800
O274        O  0.10088126  0.14651543  0.21916621    -0.81700
O275        O  0.09440339  0.19224078  0.16405169    -0.84400
C276        C  0.12188709  0.20653709  0.15167193     1.03400
O277        O  0.14375777  0.18985577  0.13581878    -0.77100
O278        O  0.18409032  0.13460245  0.12913207    -0.77300
C279        C  0.19781323  0.12772252  0.15822963     1.03300
O280        O  0.15569217  0.07121425  0.12956449    -0.84600
O281        O  0.09489622  0.06231270  0.16025832    -0.81700
C282        C  0.06414658  0.06793003  0.16744423     0.98900
O283        O  0.05727748  0.09469415  0.18387918    -0.81700
O284        O  0.05376840  0.13894531  0.13259827    -0.84300
C285        C  0.06166584  0.14689991  0.10218401     1.03300
O286        O  0.09121364  0.15884306  0.09403737    -0.77100
O287        O  0.12726169  0.10271067  0.09258675    -0.77300
C288        C  0.13929281  0.07416981  0.10176159     1.03300
Cr289      Cr  0.13611564  0.08837769  0.17314224     1.93700
Cr290      Cr  0.07986255  0.14235828  0.17377061     1.93200
Cr291      Cr  0.13551206  0.14520422  0.11596337     1.39100
O292        O  0.11765001  0.12630720  0.15487628    -1.22400
O293        O  0.30743986  0.16496601  0.10732241    -0.84600
O294        O  0.35955830  0.21585603  0.11550907    -0.81700
C295        C  0.38769426  0.22803959  0.12630934     0.98800
O296        O  0.41221456  0.20849827  0.13309893    -0.81700
O297        O  0.38945253  0.16736092  0.19033056    -0.84400
C298        C  0.37334357  0.14286533  0.20684304     1.03400
O299        O  0.36578641  0.11496943  0.19253711    -0.77100
O300        O  0.30883387  0.13062332  0.15459289    -0.77300
C301        C  0.29245028  0.14952772  0.13331470     1.03300
O302        O  0.35551102  0.13178318  0.06301923    -0.84600
O303        O  0.40388702  0.17854706  0.06772212    -0.81700
C304        C  0.42970142  0.15928781  0.07260355     0.98900
O305        O  0.43589062  0.14753971  0.10271515    -0.81700
O306        O  0.42581135  0.11186534  0.16337619    -0.84300
C307        C  0.42226246  0.08701299  0.14416973     1.03300
O308        O  0.39306240  0.08072233  0.13219164    -0.77100
O309        O  0.33427726  0.09240038  0.09979497    -0.77300
C310        C  0.34648552  0.10126488  0.07063921     1.03300
Cr311      Cr  0.35718437  0.17134580  0.09158686     1.93700
Cr312      Cr  0.41279454  0.15844278  0.14602960     1.93200
Cr313      Cr  0.35218165  0.10768983  0.14391713     1.39100
O314        O  0.37298816  0.14664344  0.12764446    -1.22400
C315        C  0.25442595  0.15145332  0.13680333    -0.15700
C316        C  0.23567684  0.13329119  0.16148504    -0.30900
H317        H  0.24115756  0.16523911  0.11599925     0.13300
H318        H  0.24856318  0.11990430  0.18276812     0.13900
C319        C  0.39094991  0.28649315  0.10080696    -0.15700
C320        C  0.39409789  0.26551074  0.12887140    -0.30900
H321        H  0.38008062  0.27584902  0.07770847     0.13300
H322        H  0.40728986  0.27472596  0.15136403     0.13900
C323        C  0.15244323  0.26173155  0.13595393    -0.15700
C324        C  0.12785123  0.24384908  0.15459771    -0.30900
H325        H  0.16941314  0.24859577  0.11881398     0.13300
H326        H  0.10960881  0.25738273  0.17005160     0.13900
C327        C  0.26727034  0.40084192  0.12333222    -0.15700
C328        C  0.28755217  0.38299168  0.10257828    -0.30900
H329        H  0.27785090  0.42333045  0.13559690     0.13300
H330        H  0.27700684  0.36075954  0.08987238     0.13900
C331        C  0.12664767  0.34751955  0.26857433    -0.15700
C332        C  0.14843910  0.37008770  0.25093102    -0.30900
H333        H  0.11077540  0.32947222  0.25471150     0.13300
H334        H  0.16559312  0.38678507  0.26500500     0.13900
C335        C  0.10280405  0.08959643  0.29431116    -0.15700
C336        C  0.09919615  0.11824501  0.27408742    -0.30900
H337        H  0.11509616  0.06735146  0.28408471     0.13300
H338        H  0.08840765  0.14096307  0.28498388     0.13900
C339        C  0.11191378  0.22886958  0.40291754    -0.15700
C340        C  0.08533566  0.20958834  0.39204142    -0.30900
H341        H  0.13199067  0.21653682  0.41806300     0.13300
H342        H  0.06620462  0.22127201  0.37520489     0.13900
C343        C  0.36507603  0.14535291  0.24372592    -0.15700
C344        C  0.34525026  0.12097298  0.26091741    -0.30900
H345        H  0.37708131  0.16627777  0.25731878     0.13300
H346        H  0.33332815  0.10010599  0.24715520     0.13900
C347        C  0.22145804  0.10045436  0.38609432    -0.15700
C348        C  0.20201159  0.10942867  0.41276522    -0.30900
H349        H  0.20965317  0.08651719  0.36541011     0.13300
H350        H  0.21321676  0.12505705  0.43251001     0.13900
C351        C  0.39855161  0.38329845  0.21402983    -0.15700
C352        C  0.37264095  0.39071336  0.23497310    -0.30900
H353        H  0.42044845  0.36989795  0.22503225     0.13300
H354        H  0.35203964  0.40664391  0.22495745     0.13900
C355        C  0.25649883  0.36653172  0.35250826    -0.15700
C356        C  0.23915858  0.34861025  0.37818095    -0.30900
H357        H  0.24279968  0.37903476  0.33123259     0.13300
H358        H  0.25313935  0.33614123  0.39929714     0.13900
C359        C  0.36353122  0.25408286  0.35445063    -0.15700
C360        C  0.33791972  0.23552076  0.37132796    -0.30900
H361        H  0.38384727  0.24058639  0.34177275     0.13300
H362        H  0.31717405  0.24869168  0.38365866     0.13900
C363        C  0.45093844  0.14942201  0.54207786     0.30700
C364        C  0.00018975  0.13445638  0.99374349     0.30700
C365        C  0.44105122  0.12917611  0.01407717    -0.05500
C366        C  0.46729992  0.17944844  0.52189432    -0.06300
C367        C  0.98485762  0.13380406  0.55401106    -0.06100
C368        C  0.46639546  0.11974353  0.98966596    -0.05500
C369        C  0.99329523  0.17405031  0.99713825    -0.06300
C370        C  0.01046442  0.12631957  0.52953549    -0.06100
C371        C  0.45028156  0.12036925  0.95811786    -0.31500
N372        N  0.41844975  0.13257430  0.96101117     0.15000
C373        C  0.41224192  0.13765157  0.99462334    -0.31500
H374        H  0.39045532  0.15156263  0.00368579     0.16900
C375        C  0.00721709  0.20627772  0.98708196    -0.30500
N376        N  0.49029974  0.22894312  0.50494962     0.13700
C377        C  0.46622793  0.21386174  0.52591319    -0.30500
C378        C  0.04176801  0.13334838  0.54493004    -0.30800
N379        N  0.03607326  0.14362900  0.57702191     0.14200
H380        H  0.06687726  0.13362186  0.53275039     0.16800
C381        C  0.00220014  0.14391732  0.58279880    -0.30800
H382        H  0.99143671  0.15458727  0.60557085     0.16800
H383        H  0.45045619  0.22667539  0.54419907     0.16800
H384        H  0.46271328  0.11749297  0.93347727     0.16900
H385        H  0.02880988  0.21102135  0.96967853     0.16800
C386        C  0.03775575  0.34692807  0.96847250     0.30700
C387        C  0.48988204  0.36086869  0.51575469     0.30700
C388        C  0.50595457  0.36783316  0.95219562    -0.05500
C389        C  0.02055263  0.31648399  0.98740800    -0.06300
C390        C  0.05031227  0.36941883  0.49811935    -0.06100
C391        C  0.48194961  0.37298492  0.47833091    -0.05500
C392        C  0.49555848  0.32142823  0.51104400    -0.06300
C393        C  0.52692086  0.37350487  0.52200211    -0.06100
C394        C  0.44908727  0.37003427  0.96103448    -0.31500
N395        N  0.45468926  0.35974464  0.92908774     0.15000
C396        C  0.48837849  0.35926820  0.92305985    -0.31500
H397        H  0.49867243  0.34812339  0.90032701     0.16900
C398        C  0.48171667  0.28937497  0.52145900    -0.30500
N399        N  0.49798960  0.26461495  0.50359329     0.13700
C400        C  0.02185426  0.28215650  0.98290897    -0.30500
C401        C  0.04004999  0.37992355  0.55349923    -0.30800
N402        N  0.07255504  0.36935487  0.55116452     0.14200
H403        H  0.02722786  0.38261079  0.57796394     0.16800
C404        C  0.07945393  0.36365257  0.51786485    -0.30800
H405        H  0.10203416  0.35052493  0.50950654     0.16800
H406        H  0.03779652  0.26963739  0.96454882     0.16800
H407        H  0.42398500  0.36921296  0.97325635     0.16900
H408        H  0.46068220  0.28476725  0.53957173     0.16800
C409        C  0.15033575  0.46368976  0.54781285     0.30700
C410        C  0.13081596  0.01321465  0.99697125     0.30700
C411        C  0.12215953  0.98998123  0.55997738    -0.05500
C412        C  0.17984442  0.48536472  0.53335577    -0.06300
C413        C  0.12884480  0.45187572  0.01856481    -0.06100
C414        C  0.11197965  0.01412663  0.53309144    -0.05500
C415        C  0.17018160  0.00734273  0.00345851    -0.06300
C416        C  0.11982552  0.47629672  0.99157753    -0.06100
C417        C  0.11071588  0.04576807  0.54757784    -0.31500
N418        N  0.12317017  0.04327836  0.57962679     0.15000
C419        C  0.12935775  0.00984961  0.58793422    -0.31500
H420        H  0.14387274  0.00139990  0.61034993     0.16900
C421        C  0.20223806  0.01849491  0.99122309    -0.30500
N422        N  0.22903418  0.49873970  0.50948561     0.13700
C423        C  0.21387234  0.47948344  0.53497185    -0.30500
C424        C  0.12500053  0.46034325  0.96090012    -0.30800
N425        N  0.13696640  0.42863036  0.96777328     0.14200
H426        H  0.12335793  0.47213455  0.93513626     0.16800
C427        C  0.13907267  0.42306564  0.00217097    -0.30800
H428        H  0.15168867  0.40110923  0.01411518     0.16800
H429        H  0.22618104  0.46015052  0.55135912     0.16800
H430        H  0.10739562  0.07029171  0.53372116     0.16900
H431        H  0.20698153  0.03806841  0.97086720     0.16800
C432        C  0.36026486  0.48419351  0.51382479     0.30700
C433        C  0.34123267  0.03899228  0.96420857     0.30700
C434        C  0.37535636  0.48009148  0.47749075    -0.05500
C435        C  0.32088837  0.48831519  0.50583436    -0.06300
C436        C  0.36656127  0.02126632  0.52324702    -0.06100
C437        C  0.36409620  0.50964717  0.95333809    -0.05500
C438        C  0.31179021  0.01943645  0.98137139    -0.06300
C439        C  0.35861812  0.04689275  0.49723754    -0.06100
C440        C  0.35794995  0.49030651  0.92475860    -0.31500
N441        N  0.36504675  0.45692699  0.93231319     0.15000
C442        C  0.37628495  0.45399967  0.96486332    -0.31500
H443        H  0.38036798  0.42923969  0.97791781     0.16900
C444        C  0.27750072  0.02324530  0.97877737    -0.30500
N445        N  0.25973983  0.99889546  0.50445444     0.13700
C446        C  0.28878699  0.47895668  0.51951419    -0.30500
C447        C  0.34977486  0.07547008  0.51442717    -0.30800
N448        N  0.35082575  0.06846639  0.54841996     0.14200
H449        H  0.33883641  0.09885167  0.50351528     0.16800
C450        C  0.36121992  0.03615353  0.55453132    -0.30800
H451        H  0.36113243  0.02340889  0.57995552     0.16800
H452        H  0.28407234  0.46162721  0.54177334     0.16800
H453        H  0.34407139  0.49900180  0.90201348     0.16900
H454        H  0.26450058  0.04114041  0.96137388     0.16800
C455        C  0.48468939  0.48651630  0.64019557     0.30700
C456        C  0.03170669  0.03785941  0.65595898     0.30700
C457        C  0.47933406  0.02400661  0.62524701    -0.05500
C458        C  0.49307563  0.49066041  0.67952349    -0.06300
C459        C  0.52036009  0.48057634  0.62472930    -0.06100
C460        C  0.50381380  0.04988243  0.63466195    -0.05500
C461        C  0.01344627  0.02063451  0.68656863    -0.06300
C462        C  0.04681191  0.50793591  0.63871603    -0.06100
C463        C  0.48449114  0.07814968  0.64293696    -0.31500
N464        N  0.45080693  0.07101379  0.63807143     0.15000
C465        C  0.44769025  0.03908189  0.62623126    -0.31500
H466        H  0.42320265  0.02563334  0.62391393     0.16900
C467        C  0.01680566  0.02423279  0.72087264    -0.30500
N468        N  0.49698140  0.99977605  0.73639250     0.13700
C469        C  0.48177331  0.47946652  0.71224926    -0.30500
C470        C  0.07591208  0.49078032  0.64854994    -0.30800
N471        N  0.07017522  0.45678335  0.64804035     0.14200
H472        H  0.09882827  0.50145517  0.65989687     0.16800
C473        C  0.03814707  0.45051690  0.63736437    -0.30800
H474        H  0.02622961  0.42498341  0.63783736     0.16800
H475        H  0.46090675  0.46107772  0.71781287     0.16800
H476        H  0.49392673  0.10023015  0.65638214     0.16900
H477        H  0.03436145  0.04175261  0.73315509     0.16800
C478        C  0.00643307  0.01006825  0.86874330     0.30700
C479        C  0.45674857  0.46106703  0.85278505     0.30700
C480        C  0.46723310  0.01756706  0.87990354    -0.05500
C481        C  0.99956347  0.00343237  0.82972488    -0.06300
C482        C  0.01258313  0.47170851  0.88299981    -0.06100
C483        C  0.44186920  0.99215883  0.87230665    -0.05500
C484        C  0.47500309  0.47836292  0.82246812    -0.06300
C485        C  0.98800256  0.44571709  0.87393686    -0.06100
C486        C  0.41304278  0.01025755  0.86356944    -0.31500
N487        N  0.41977928  0.04410252  0.86426021     0.15000
C488        C  0.45214714  0.04935410  0.87432004    -0.31500
H489        H  0.46473043  0.07457686  0.87373935     0.16900
C490        C  0.47249902  0.47360110  0.78834316    -0.30500
N491        N  0.49572989  0.49483153  0.77234869     0.13700
C492        C  0.01013598  0.01520318  0.79703047    -0.30500
C493        C  0.00723480  0.41753653  0.86555396    -0.30800
N494        N  0.04081456  0.42493521  0.87057759     0.14200
H495        H  0.99781568  0.39508902  0.85266526     0.16800
C496        C  0.04407661  0.45696308  0.88173702    -0.30800
H497        H  0.06865454  0.47029806  0.88344919     0.16800
H498        H  0.02959182  0.03509244  0.79135285     0.16800
H499        H  0.38957715  0.00033200  0.85265968     0.16900
H500        H  0.45526982  0.45571861  0.77611362     0.16800
O501        O  0.39334480  0.31209164  0.84036647    -0.84600
O502        O  0.38705479  0.36268826  0.78702098    -0.81700
C503        C  0.37797442  0.39084293  0.77273045     0.98800
O504        O  0.36873478  0.41516017  0.79080200    -0.81700
O505        O  0.31038794  0.39314319  0.83128569    -0.84400
C506        C  0.29406247  0.37848050  0.85667652     1.03400
O507        O  0.30913966  0.37104886  0.88479491    -0.77100
O508        O  0.34598917  0.31399632  0.87222824    -0.77300
C509        C  0.36691514  0.29740861  0.85481309     1.03300
O510        O  0.43745039  0.36159439  0.87340059    -0.84600
O511        O  0.43348720  0.40905059  0.82511623    -0.81700
C512        C  0.42815157  0.43511406  0.84311217     0.98900
O513        O  0.39795614  0.44118927  0.85224482    -0.81700
O514        O  0.33827410  0.43150779  0.88581543    -0.84300
C515        C  0.35686893  0.42809972  0.91200607     1.03300
O516        O  0.36925124  0.39915480  0.91944240    -0.77100
O517        O  0.40098767  0.34012470  0.91196475    -0.77300
C518        C  0.42996674  0.35287232  0.90381979     1.03300
Cr519      Cr  0.40956411  0.36193001  0.83278852     1.93700
Cr520      Cr  0.35507414  0.41713495  0.84039370     1.93200
Cr521      Cr  0.35724983  0.35762071  0.89401057     1.39100
O522        O  0.37339128  0.37779042  0.85484994    -1.22400
O523        O  0.31591260  0.18501369  0.89164226    -0.84600
O524        O  0.27631480  0.12346564  0.90899087    -0.81700
C525        C  0.26107945  0.11380885  0.88210379     0.98800
O526        O  0.27828674  0.10567041  0.85647178    -0.81700
O527        O  0.33369936  0.09951383  0.81338586    -0.84400
C528        C  0.34508587  0.12744550  0.79844142     1.03400
O529        O  0.35871397  0.15118691  0.81522947    -0.77100
O530        O  0.36920722  0.18964007  0.87190314    -0.77300
C531        C  0.34063642  0.20315099  0.87820420     1.03300
O532        O  0.37015057  0.15807326  0.93484738    -0.84600
O533        O  0.33793826  0.09781910  0.94281612    -0.81100
C534        C  0.33033088  0.06709735  0.93705772     0.98900
O535        O  0.31305313  0.06106527  0.91011438    -0.81700
O536        O  0.36482369  0.06015860  0.86887529    -0.84300
C537        C  0.39425723  0.06877727  0.85882834     1.03300
O538        O  0.40088039  0.09825260  0.84502944    -0.77100
O539        O  0.40594718  0.13158869  0.90282085    -0.77300
C540        C  0.39751237  0.14160066  0.93184525     1.03300
Cr541      Cr  0.32550477  0.14003378  0.91664005     1.93700
Cr542      Cr  0.32346336  0.08484987  0.86294293     1.93200
Cr543      Cr  0.38068582  0.14170190  0.86012435     1.39100
O544        O  0.34246732  0.12287542  0.87890711    -1.22400
O545        O  0.05674539  0.16169174  0.91043044    -0.84600
O546        O  0.06844254  0.12780511  0.85225002    -0.81700
C547        C  0.08396686  0.10814654  0.83291937     0.98800
O548        O  0.09394961  0.07891226  0.84444239    -0.81700
O549        O  0.14969095  0.08907959  0.88669066    -0.84400
C550        C  0.16655546  0.10017360  0.91177773     1.03400
O551        O  0.15197691  0.10332487  0.94037564    -0.77100
O552        O  0.11045747  0.15894436  0.92674361    -0.77300
C553        C  0.08558201  0.17614608  0.91501590     1.03300
O554        O  0.01958285  0.10475332  0.94146900    -0.84600
O555        O  0.02658371  0.06989565  0.87660151    -0.81700
C556        C  0.03380807  0.03815885  0.87997868     0.98900
O557        O  0.06227813  0.03024158  0.89424486    -0.81700
O558        O  0.12340018  0.03750428  0.93729655    -0.84300
C559        C  0.11773156  0.04105147  0.96939392     1.03300
O560        O  0.10034185  0.06686302  0.97825355    -0.77100
O561        O  0.05898855  0.12928203  0.97235416    -0.77300
C562        C  0.02749975  0.12216775  0.96748506     1.03300
Cr563      Cr  0.04607627  0.11375044  0.89687655     1.93700
Cr564      Cr  0.10527749  0.06157152  0.89277307     1.93200
Cr565      Cr  0.10335180  0.11284309  0.95134163     1.39100
O566        O  0.08449330  0.09537130  0.91397073    -1.22400
O567        O  0.11059548  0.32299482  0.82707324    -0.84600
O568        O  0.09160275  0.28466098  0.88905353    -0.81700
C569        C  0.11839558  0.26955643  0.89932601     0.98800
O570        O  0.14463889  0.28693780  0.90666059    -0.81700
O571        O  0.18830466  0.34295491  0.91401258    -0.84400
C572        C  0.20235616  0.35499085  0.88607379     1.03400
O573        O  0.18502244  0.36892384  0.86229017    -0.77100
O574        O  0.12958381  0.37711450  0.82141354    -0.77300
C575        C  0.12373519  0.34798890  0.80865025     1.03300
O576        O  0.06741061  0.37700952  0.84847083    -0.84600
O577        O  0.05830790  0.34567662  0.91019742    -0.81700
C578        C  0.06424032  0.33723849  0.94111174     0.98900
O579        O  0.09128789  0.32039256  0.94835222    -0.81700
O580        O  0.13376767  0.37294841  0.95221840    -0.84300
C581        C  0.14264023  0.40311598  0.94348759     1.03300
O582        O  0.15477065  0.41077520  0.91371852    -0.77100
O583        O  0.09806635  0.41344894  0.87670015    -0.77300
C584        C  0.06983523  0.40452700  0.86428864     1.03300
Cr585      Cr  0.08490413  0.33316026  0.86990104     1.93700
Cr586      Cr  0.13872486  0.33183878  0.92717148     1.93200
Cr587      Cr  0.14063159  0.38969092  0.86962661     1.39100
O588        O  0.12230807  0.35105235  0.88852250    -1.22400
O589        O  0.15743516  0.40181011  0.69939152    -0.84600
O590        O  0.21282575  0.39670152  0.65555545    -0.81700
C591        C  0.22979930  0.38778829  0.63002388     0.98800
O592        O  0.21438955  0.37780933  0.60340581    -0.81700
O593        O  0.17424683  0.31644969  0.62082335    -0.84400
C594        C  0.14926067  0.29829812  0.63386537     1.03400
O595        O  0.12088667  0.31212997  0.64024498    -0.77100
O596        O  0.13188374  0.35036260  0.69724229    -0.77300
C597        C  0.14588529  0.37380175  0.71421342     1.03300
O598        O  0.12568291  0.44182504  0.64428252    -0.84600
O599        O  0.17720449  0.44131337  0.60255516    -0.81700
C600        C  0.16064273  0.43522153  0.57515106     0.98900
O601        O  0.15335080  0.40438864  0.56915607    -0.81700
O602        O  0.12055323  0.34411018  0.57772121    -0.84300
C603        C  0.09335143  0.36081788  0.58051467     1.03300
O604        O  0.08481196  0.37094003  0.60947285    -0.77100
O605        O  0.08997878  0.40336086  0.66791455    -0.77300
C606        C  0.09625017  0.43282207  0.65408305     1.03300
Cr607      Cr  0.16726837  0.41712321  0.64969958     1.93700
Cr608      Cr  0.16518599  0.36182071  0.59579086     1.93200
Cr609      Cr  0.10997464  0.36022453  0.65227422     1.39100
O610        O  0.14829987  0.37907610  0.63357643    -1.22400
O611        O  0.38024488  0.33790565  0.58431468    -0.84600
O612        O  0.33866352  0.39369814  0.57096756    -0.81700
C613        C  0.32436531  0.39749823  0.59962244     0.98800
O614        O  0.34149591  0.40892836  0.62433535    -0.81700
O615        O  0.39736801  0.41959899  0.66570562    -0.84400
C616        C  0.40631819  0.39015030  0.67743576     1.03400
O617        O  0.42179161  0.37006690  0.65844369    -0.77100
O618        O  0.43390784  0.33527701  0.60069788    -0.77300
C619        C  0.40508039  0.32082762  0.59645155     1.03300
O620        O  0.43134323  0.36758617  0.53770104    -0.84600
O621        O  0.39035961  0.43031529  0.53272735    -0.81700
C622        C  0.37312537  0.45632024  0.54139556     0.98900
O623        O  0.36721662  0.45989781  0.57331847    -0.81700
O624        O  0.42881293  0.46707272  0.61485557    -0.84300
C625        C  0.45710312  0.45892173  0.62919890     1.03300
O626        O  0.46391619  0.42716818  0.63330908    -0.77100
O627        O  0.47170841  0.39062941  0.56878887    -0.77300
C628        C  0.46308190  0.37366109  0.54252888     1.03300
Cr629      Cr  0.38721781  0.38414084  0.55942745     1.93700
Cr630      Cr  0.38584018  0.43608722  0.61740922     1.93200
Cr631      Cr  0.44462376  0.38317107  0.61364349     1.39100
O632        O  0.40635825  0.40178437  0.59643634    -1.22400
O633        O  0.17743624  0.10559327  0.68083941    -0.84600
O634        O  0.11727318  0.08349836  0.71812280    -0.81700
C635        C  0.10827443  0.10771883  0.73634708     0.98800
O636        O  0.09970889  0.13623310  0.72223301    -0.81700
O637        O  0.09530185  0.18800747  0.66877116    -0.84400
C638        C  0.12197857  0.20307496  0.65507876     1.03400
O639        O  0.14359093  0.18665109  0.63834468    -0.77100
O640        O  0.18133888  0.12945610  0.62804050    -0.77300
C641        C  0.19511601  0.12068260  0.65661566     1.03300
O642        O  0.15183888  0.06897922  0.62466919    -0.84600
O643        O  0.09034528  0.05862285  0.65561981    -0.81700
C644        C  0.06008670  0.06435876  0.66491205     0.98900
O645        O  0.05440591  0.09076155  0.68231274    -0.81700
O646        O  0.05234465  0.13906828  0.63333123    -0.84300
C647        C  0.06068627  0.14850737  0.60317378     1.03300
O648        O  0.09034975  0.16021184  0.59595805    -0.77100
O649        O  0.12250963  0.10169008  0.59010024    -0.77300
C650        C  0.13354423  0.07242781  0.59838639     1.03300
Cr651      Cr  0.13297777  0.08234481  0.66931185     1.93700
Cr652      Cr  0.07874318  0.13793880  0.67540593     1.93200
Cr653      Cr  0.13347676  0.14286281  0.61622890     1.39100
O654        O  0.11561993  0.12217952  0.65455849    -1.22400
O655        O  0.30216711  0.15466113  0.60255640    -0.84600
O656        O  0.34639251  0.21011468  0.60780394    -0.81700
C657        C  0.37295706  0.22736235  0.61420801     0.98800
O658        O  0.40009138  0.21208903  0.62332836    -0.81700
O659        O  0.38366273  0.17406402  0.68569401    -0.84400
C660        C  0.37016578  0.14974016  0.70463899     1.03400
O661        O  0.36398964  0.12028254  0.69275346    -0.77100
O662        O  0.30611663  0.12841561  0.65414113    -0.77300
C663        C  0.28846732  0.14274809  0.63067069     1.03300
O664        O  0.35485692  0.12384026  0.56323229    -0.84600
O665        O  0.39763044  0.17586033  0.56362427    -0.81700
C666        C  0.42493444  0.15911848  0.56995158     0.98900
O667        O  0.43175486  0.15060192  0.60063024    -0.81700
O668        O  0.42540538  0.11896920  0.66229711    -0.84300
C669        C  0.42197213  0.09138226  0.64654241     1.03300
O670        O  0.39276679  0.08245907  0.63639707    -0.77100
O671        O  0.33432388  0.08638112  0.60245420    -0.77300
C672        C  0.34597901  0.09383767  0.57258073     1.03300
Cr673      Cr  0.35114009  0.16508520  0.58744341     1.93700
Cr674      Cr  0.40727807  0.16332236  0.64202607     1.93200
Cr675      Cr  0.35063161  0.10731230  0.64538222     1.39100
O676        O  0.36877717  0.14577635  0.62541765    -1.22400
C677        C  0.25078567  0.14376055  0.63443646    -0.15700
C678        C  0.23277174  0.12591129  0.65968873    -0.30900
H679        H  0.23718889  0.15679973  0.61338479     0.13300
H680        H  0.24594849  0.11280984  0.68096370     0.13900
C681        C  0.40248853  0.28349233  0.60519400    -0.15700
C682        C  0.37288490  0.26524020  0.60790656    -0.30900
H683        H  0.42656150  0.27047842  0.60994506     0.13300
H684        H  0.34863346  0.27781423  0.60299047     0.13900
C685        C  0.15143072  0.26010127  0.63941157    -0.15700
C686        C  0.12621007  0.24121818  0.65651838    -0.30900
H687        H  0.17236497  0.24721310  0.62709194     0.13300
H688        H  0.10569430  0.25449461  0.66913363     0.13900
C689        C  0.26785543  0.39169491  0.63076030    -0.15700
C690        C  0.28700855  0.38936629  0.60211099    -0.30900
H691        H  0.27996097  0.39928054  0.65448142     0.13300
H692        H  0.27447438  0.38222517  0.57844372     0.13900
C693        C  0.12987617  0.34483451  0.77116980    -0.15700
C694        C  0.14659895  0.37037648  0.75231750    -0.30900
H695        H  0.11828486  0.32301440  0.75862297     0.13300
H696        H  0.15828469  0.39187306  0.76533561     0.13900
C697        C  0.08920356  0.11940372  0.79606220    -0.15700
C698        C  0.10655596  0.10036324  0.77414099    -0.30900
H699        H  0.07752305  0.14316875  0.78656370     0.13300
H700        H  0.11761555  0.07633506  0.78383102     0.13900
C701        C  0.11816909  0.23170989  0.90563646    -0.15700
C702        C  0.08839537  0.21358403  0.90712813    -0.30900
H703        H  0.14222494  0.21900164  0.91118465     0.13300
H704        H  0.06448699  0.22674068  0.90191758     0.13900
C705        C  0.36361178  0.15422657  0.74169190    -0.15700
C706        C  0.34479326  0.13030194  0.76047503    -0.30900
H707        H  0.37638281  0.17554572  0.75402762     0.13300
H708        H  0.33200526  0.10929598  0.74762947     0.13900
C709        C  0.22310170  0.10911088  0.88106662    -0.15700
C710        C  0.20386966  0.10875601  0.90989653    -0.30900
H711        H  0.21119378  0.10304704  0.85676934     0.13300
H712        H  0.21625365  0.11437227  0.93409567     0.13900
C713        C  0.39985972  0.37927406  0.71416915    -0.15700
C714        C  0.38005854  0.39748443  0.73486335    -0.30900
H715        H  0.41259271  0.35648384  0.72465516     0.13300
H716        H  0.36779654  0.42051617  0.72427155     0.13900
C717        C  0.25662366  0.37206889  0.85548650    -0.15700
C718        C  0.23995318  0.35506198  0.88223476    -0.30900
H719        H  0.24246059  0.38343927  0.83392412     0.13300
H720        H  0.25434517  0.34363582  0.90361967     0.13900
C721        C  0.36233199  0.25948924  0.85355086    -0.15700
C722        C  0.33793307  0.24103577  0.87206791    -0.30900
H723        H  0.38217706  0.24601509  0.84011704     0.13300
H724        H  0.31759999  0.25408499  0.88518470     0.13900
C725        C  0.45437647  0.65085485  0.04350153     0.30700
C726        C  0.00223478  0.63462726  0.49632540     0.30700
C727        C  0.44089080  0.62704714  0.51433556    -0.05500
C728        C  0.47022159  0.68161176  0.02376450    -0.06300
C729        C  0.98467155  0.63069651  0.05846860    -0.06100
C730        C  0.46666137  0.61746778  0.49048599    -0.05500
C731        C  0.99333648  0.67396376  0.49840584    -0.06300
C732        C  0.00999352  0.62297204  0.03364561    -0.06100
C733        C  0.45074338  0.61656995  0.45895173    -0.31500
N734        N  0.41876172  0.62834037  0.46136009     0.15000
C735        C  0.41204323  0.63414379  0.49463767    -0.31500
H736        H  0.38992877  0.64798171  0.50304026     0.16900
C737        C  0.00550933  0.70654446  0.48713897    -0.30500
N738        N  0.48982431  0.73199975  0.00483555     0.13700
C739        C  0.46746925  0.71603522  0.02715025    -0.30500
C740        C  0.04158829  0.62904525  0.04931164    -0.30800
N741        N  0.03626356  0.63935547  0.08149574     0.14200
H742        H  0.06666887  0.62894397  0.03714585     0.16800
C743        C  0.00247542  0.63963915  0.08747199    -0.30800
H744        H  0.99217226  0.65022050  0.11047630     0.16800
H745        H  0.45141943  0.72841826  0.04549213     0.16800
H746        H  0.46327959  0.61328396  0.43446575     0.16900
H747        H  0.02686118  0.71174316  0.46952261     0.16800
C748        C  0.03402009  0.84722978  0.46766921     0.30700
C749        C  0.48243575  0.86415750  0.01251526     0.30700
C750        C  0.50218936  0.86656743  0.45002580    -0.05500
C751        C  0.01586633  0.81699000  0.48568673    -0.06300
C752        C  0.04600592  0.87036787  0.99812297    -0.06100
C753        C  0.47573502  0.87556880  0.97519837    -0.05500
C754        C  0.49033995  0.82491104  0.00879087    -0.06300
C755        C  0.51868572  0.87938085  0.01957710    -0.06100
C756        C  0.44618671  0.87320475  0.46067638    -0.31500
N757        N  0.44935619  0.86120975  0.42911841     0.15000
C758        C  0.48274043  0.85728595  0.42192472    -0.31500
H759        H  0.49161475  0.84386668  0.39988490     0.16900
C760        C  0.47750914  0.79240234  0.01926165    -0.30500
N761        N  0.49545913  0.76805001  0.00242776     0.13700
C762        C  0.01715292  0.78272785  0.48093468    -0.30500
C763        C  0.03492310  0.88223262  0.05313153    -0.30800
N764        N  0.06711494  0.87114789  0.05149183     0.14200
H765        H  0.02218775  0.88588843  0.07741222     0.16800
C766        C  0.07456271  0.86463088  0.01849542    -0.30800
H767        H  0.09699768  0.85082512  0.01086093     0.16800
H768        H  0.03347988  0.77030790  0.46285189     0.16800
H769        H  0.42173781  0.87416193  0.47392427     0.16900
H770        H  0.45603422  0.78715498  0.03673943     0.16800
C771        C  0.14743062  0.96273559  0.04636041     0.30700
C772        C  0.13376805  0.51183661  0.49608303     0.30700
C773        C  0.12480753  0.49637240  0.06025939    -0.05500
C774        C  0.17740877  0.98132361  0.02874621    -0.06300
C775        C  0.12836991  0.94747012  0.51599634    -0.06100
C776        C  0.11555769  0.52031077  0.03312914    -0.05500
C777        C  0.17271999  0.51007492  0.50662278    -0.06300
C778        C  0.12012536  0.97243687  0.48958215    -0.06100
C779        C  0.11611107  0.55230432  0.04701744    -0.31500
N780        N  0.12672287  0.54921812  0.07955785     0.15000
C781        C  0.13159773  0.51591291  0.08831106    -0.31500
H782        H  0.14499728  0.50753989  0.11143374     0.16900
C783        C  0.20459296  0.51691283  0.49130004    -0.30500
N784        N  0.22688971  0.99986070  0.00864725     0.13700
C785        C  0.21169511  0.97723647  0.03145851    -0.30500
C786        C  0.12699004  0.95767812  0.45851316    -0.30800
N787        N  0.13816068  0.92561067  0.46495417     0.14200
H788        H  0.12668465  0.97028453  0.43302389     0.16800
C789        C  0.13876296  0.91900413  0.49910322    -0.30800
H790        H  0.14963771  0.89575154  0.51037942     0.16800
H791        H  0.22456083  0.95857674  0.04818148     0.16800
H792        H  0.11591881  0.57706751  0.03300317     0.16900
H793        H  0.20904234  0.53198546  0.46747839     0.16800
C794        C  0.35884324  0.99145330  0.01566920     0.30700
C795        C  0.34319536  0.53400011  0.46402603     0.30700
C796        C  0.37377568  0.98559846  0.97945087    -0.05500
C797        C  0.31943809  0.99496699  0.00783054    -0.06300
C798        C  0.36692294  0.52734956  0.02362229    -0.06100
C799        C  0.36065664  0.00483110  0.45357402    -0.05500
C800        C  0.31364237  0.51372600  0.48004318    -0.06300
C801        C  0.35859080  0.55226031  0.99714536    -0.06100
C802        C  0.35338052  0.98788704  0.42421872    -0.31500
N803        N  0.35581900  0.95377636  0.43055697     0.15000
C804        C  0.36568016  0.94761260  0.46326076    -0.31500
H805        H  0.36677940  0.92196030  0.47537780     0.16900
C806        C  0.27954772  0.51858096  0.47773121    -0.30500
N807        N  0.26186123  0.50089892  0.00219254     0.13700
C808        C  0.28751577  0.98451773  0.02121034    -0.30500
C809        C  0.34932039  0.58134538  0.01377897    -0.30800
N810        N  0.35083601  0.57523031  0.04791417     0.14200
H811        H  0.33827504  0.60451068  0.00251388     0.16800
C812        C  0.36115414  0.54275131  0.05452308    -0.30800
H813        H  0.36155159  0.53028824  0.08008392     0.16800
H814        H  0.28304959  0.96674348  0.04318306     0.16800
H815        H  0.34161298  0.99893380  0.40125294     0.16900
H816        H  0.26705613  0.53797805  0.46158904     0.16800
C817        C  0.48836588  0.98495193  0.13817284     0.30700
C818        C  0.03554882  0.53613952  0.15869251     0.30700
C819        C  0.47946581  0.52172034  0.12442269    -0.05500
C820        C  0.49256160  0.99222641  0.17744488    -0.06300
C821        C  0.52534944  0.97834625  0.12789798    -0.06100
C822        C  0.50404110  0.54759178  0.13385210    -0.05500
C823        C  0.01913715  0.51658047  0.18893256    -0.06300
C824        C  0.05155201  0.01053401  0.13772275    -0.06100
C825        C  0.48439526  0.57551297  0.14223208    -0.31500
N826        N  0.45070709  0.56818872  0.13704535     0.15000
C827        C  0.44768908  0.53644670  0.12506863    -0.31500
H828        H  0.42323307  0.52298441  0.12265868     0.16900
C829        C  0.02351676  0.51871781  0.22333157    -0.30500
N830        N  0.49761130  0.49782929  0.23528259     0.13700
C831        C  0.48022603  0.98092635  0.20968562    -0.30500
C832        C  0.08081311  0.99329380  0.14763887    -0.30800
N833        N  0.07529739  0.95928225  0.14631234     0.14200
H834        H  0.10332851  0.00383435  0.15982474     0.16800
C835        C  0.04342232  0.95322787  0.13480193    -0.30800
H836        H  0.03142243  0.92774796  0.13470766     0.16800
H837        H  0.46092857  0.96073537  0.21469569     0.16800
H838        H  0.49363193  0.59752818  0.15591459     0.16900
H839        H  0.04128384  0.53582480  0.23589365     0.16800
C840        C  0.00665967  0.50751385  0.37132787     0.30700
C841        C  0.45679092  0.95627345  0.35009567     0.30700
C842        C  0.46835723  0.51427818  0.37899090    -0.05500
C843        C  0.00232663  0.49987276  0.33204275    -0.06300
C844        C  0.01085248  0.97059478  0.38373719    -0.06100
C845        C  0.44349268  0.48843000  0.37136056    -0.05500
C846        C  0.47322322  0.97613306  0.32000633    -0.06300
C847        C  0.98771482  0.94394267  0.37355528    -0.06100
C848        C  0.41418983  0.50597807  0.36279671    -0.31500
N849        N  0.42018344  0.53994399  0.36391966     0.15000
C850        C  0.45259407  0.54572540  0.37372975    -0.31500
H851        H  0.46476420  0.57114553  0.37323881     0.16900
C852        C  0.47023563  0.97294492  0.28563783    -0.30500
N853        N  0.49213909  0.99606121  0.27015342     0.13700
C854        C  0.01434245  0.51095660  0.29954549    -0.30500
C855        C  0.00808245  0.91639697  0.36644951    -0.30800
N856        N  0.04097710  0.92468911  0.37283986     0.14200
H857        H  0.00039348  0.89410810  0.35236390     0.16800
C858        C  0.04285851  0.95647057  0.38479584    -0.30800
H859        H  0.06695525  0.97019923  0.38835327     0.16800
H860        H  0.03356938  0.53115360  0.29423713     0.16800
H861        H  0.39095626  0.49564932  0.35176648     0.16900
H862        H  0.45386318  0.95461769  0.27294149     0.16800
O863        O  0.38112857  0.81209224  0.32763444    -0.84600
O864        O  0.39996600  0.87380016  0.28717143    -0.81700
C865        C  0.37316928  0.88488612  0.27213075     0.98800
O866        O  0.34788626  0.89344623  0.28957968    -0.81700
O867        O  0.30537888  0.90157560  0.34508722    -0.84400
C868        C  0.29045688  0.87348622  0.35594216     1.03400
O869        O  0.30712488  0.84873373  0.36862718    -0.77100
O870        O  0.36098285  0.80740473  0.38099657    -0.77300
C871        C  0.36732906  0.79400485  0.35257681     1.03300
O872        O  0.42398034  0.83623003  0.38161812    -0.84600
O873        O  0.43612947  0.89678258  0.34829656    -0.81700
C874        C  0.43035381  0.92782515  0.33998198     0.98900
O875        O  0.40316476  0.93456982  0.32289537    -0.81700
O876        O  0.36218727  0.93778001  0.37566683    -0.84300
C877        C  0.35107122  0.92939717  0.40499566     1.03300
O878        O  0.33655943  0.90030305  0.41147594    -0.77100
O879        O  0.39209653  0.86330006  0.41722559    -0.77300
C880        C  0.42072252  0.85249237  0.40875511     1.03300
Cr881      Cr  0.40752014  0.85589937  0.33660658     1.93700
Cr882      Cr  0.35536458  0.91371681  0.33432869     1.93200
Cr883      Cr  0.35059029  0.85599135  0.39162911     1.39100
O884        O  0.37044430  0.87472260  0.35360129    -1.22400
O885        O  0.31745372  0.68174059  0.39269541    -0.84600
O886        O  0.27757702  0.62048795  0.41201711    -0.81700
C887        C  0.26147087  0.61017808  0.38602392     0.98800
O888        O  0.27774191  0.60183440  0.35977469    -0.81700
O889        O  0.33203910  0.59663194  0.31413267    -0.84400
C890        C  0.34474852  0.62411958  0.29939624     1.03400
O891        O  0.35938083  0.64719209  0.31622410    -0.77100
O892        O  0.37044248  0.68592349  0.37194728    -0.77300
C893        C  0.34210335  0.69969603  0.37862748     1.03300
O894        O  0.37168240  0.65480067  0.43467023    -0.84600
O895        O  0.33962365  0.59379140  0.44397684    -0.81100
C896        C  0.33220862  0.56299609  0.43771849     0.98900
O897        O  0.31460294  0.55719675  0.41094977    -0.81700
O898        O  0.36478942  0.55576983  0.36762598    -0.84300
C899        C  0.39445854  0.56450736  0.35832688     1.03300
O900        O  0.40139365  0.59425532  0.34547902    -0.77100
O901        O  0.40680063  0.62718130  0.40316850    -0.77300
C902        C  0.39847693  0.63759295  0.43200054     1.03300
Cr903      Cr  0.32698666  0.63653032  0.41782636     1.93700
Cr904      Cr  0.32337543  0.58123614  0.36383781     1.93200
Cr905      Cr  0.38141166  0.63760696  0.36070166     1.39100
O906        O  0.34309778  0.61908005  0.37974742    -1.22400
O907        O  0.06476074  0.65408775  0.38325402    -0.84600
O908        O  0.05766623  0.59686259  0.34646632    -0.81700
C909        C  0.08701074  0.59697656  0.33267528     0.98800
O910        O  0.11252585  0.58691460  0.35000248    -0.81700
O911        O  0.15541236  0.57746487  0.40539233    -0.84400
C912        C  0.16624993  0.60656146  0.41472203     1.03400
O913        O  0.14617535  0.62696043  0.42824509    -0.77100
O914        O  0.08746346  0.66228240  0.43410012    -0.77300
C915        C  0.07790381  0.67375739  0.40459476     1.03300
O916        O  0.02341568  0.62551498  0.43775431    -0.84600
O917        O  0.02262999  0.56069924  0.40129130    -0.81700
C918        C  0.03282506  0.53564284  0.38393086     0.98900
O919        O  0.06492901  0.53359802  0.37761173    -0.81700
O920        O  0.10802533  0.52947099  0.43925152    -0.84300
C921        C  0.12097060  0.53893702  0.46761365     1.03300
O922        O  0.12187917  0.57104273  0.47359320    -0.77100
O923        O  0.05752307  0.60820361  0.47907545    -0.77300
C924        C  0.02963155  0.62241007  0.46976059     1.03300
Cr925      Cr  0.04551334  0.60757902  0.39460119     1.93700
Cr926      Cr  0.10781177  0.55960524  0.39496262     1.93200
Cr927      Cr  0.10144288  0.61464203  0.45068453     1.39100
O928        O  0.08469900  0.59343526  0.41407757    -1.22400
O929        O  0.10647464  0.82328672  0.32419961    -0.84600
O930        O  0.08469208  0.78427647  0.38548080    -0.81700
C931        C  0.11033006  0.76778517  0.39662706     0.98800
O932        O  0.13734306  0.78371370  0.40444003    -0.81700
O933        O  0.18441884  0.83720536  0.41103011    -0.84400
C934        C  0.19874533  0.84910102  0.38315178     1.03400
O935        O  0.18192051  0.86398333  0.35956432    -0.77100
O936        O  0.12750040  0.87668096  0.31894141    -0.77300
C937        C  0.12115686  0.84774917  0.30603541     1.03300
O938        O  0.06697086  0.87894434  0.34700363    -0.84600
O939        O  0.05420902  0.84640188  0.40853068    -0.81700
C940        C  0.06013154  0.83755013  0.43957299     0.98900
O941        O  0.08680138  0.82001399  0.44651536    -0.81700
O942        O  0.13179087  0.87027223  0.44955018    -0.84300
C943        C  0.14259455  0.89987221  0.44086533     1.03300
O944        O  0.15563985  0.90674900  0.41144938    -0.77100
O945        O  0.09867001  0.91385041  0.37583113    -0.77300
C946        C  0.07000763  0.90547881  0.36423361     1.03300
Cr947      Cr  0.08083401  0.83366622  0.36743302     1.93700
Cr948      Cr  0.13441701  0.82894507  0.42471658     1.93200
Cr949      Cr  0.13941410  0.88742316  0.36754693     1.39100
O950        O  0.11900829  0.84937638  0.38623970    -1.22400
O951        O  0.16415141  0.89643883  0.19594041    -0.84600
O952        O  0.21523960  0.88775814  0.14395423    -0.81700
C953        C  0.22708386  0.87724751  0.11591889     0.98800
O954        O  0.20719225  0.87120843  0.09149864    -0.81700
O955        O  0.16706781  0.81372741  0.11570535    -0.84400
C956        C  0.14296917  0.79709817  0.13200783     1.03400
O957        O  0.11538108  0.81180692  0.13981906    -0.77100
O958        O  0.13045975  0.84959433  0.19544664    -0.77300
C959        C  0.14847259  0.87082436  0.21164161     1.03300
O960        O  0.13075923  0.94160606  0.14555983    -0.84600
O961        O  0.17696223  0.93669397  0.09780108    -0.81700
C962        C  0.15701353  0.93271962  0.07223581     0.98900
O963        O  0.14550660  0.90277477  0.06685032    -0.81700
O964        O  0.11151842  0.84163321  0.07853110    -0.84300
C965        C  0.08666337  0.86113457  0.08108818     1.03300
O966        O  0.08037833  0.87304218  0.10980116    -0.77100
O967        O  0.09178015  0.90521708  0.16722997    -0.77300
C968        C  0.10037469  0.93436889  0.15405726     1.03300
Cr969      Cr  0.17043255  0.91235279  0.14538972     1.93700
Cr970      Cr  0.15751663  0.85872009  0.09113954     1.93200
Cr971      Cr  0.10752465  0.86074388  0.15139312     1.39100
O972        O  0.14605799  0.87666479  0.13050024    -1.22400
O973        O  0.39317152  0.83952903  0.07108811    -0.84600
O974        O  0.33801572  0.87982504  0.08655018    -0.81700
C975        C  0.32228543  0.90335896  0.10141505     0.98800
O976        O  0.33698305  0.93197430  0.10543934    -0.81700
O977        O  0.37831624  0.91583003  0.16103503    -0.84400
C978        C  0.40255468  0.90190635  0.17780187     1.03400
O979        O  0.43040924  0.89597695  0.16309189    -0.77100
O980        O  0.41358578  0.84055819  0.12338921    -0.77300
C981        C  0.39804151  0.82476124  0.09997823     1.03300
O982        O  0.42693235  0.89140558  0.03011356    -0.84600
O983        O  0.36513290  0.93284796  0.03898021    -0.81700
C984        C  0.37124379  0.96442460  0.04385713     0.98900
O985        O  0.38804796  0.97252018  0.07075946    -0.81700
O986        O  0.43026130  0.96230990  0.13258374    -0.84300
C987        C  0.46164211  0.95707034  0.12666337     1.03300
O988        O  0.46975101  0.93007274  0.11081840    -0.77100
O989        O  0.45970634  0.86858533  0.07054939    -0.77300
C990        C  0.45427934  0.87522193  0.03884020     1.03300
Cr991      Cr  0.38279824  0.88804152  0.05969604     1.93700
Cr992      Cr  0.38552816  0.94251573  0.11549959     1.93200
Cr993      Cr  0.44019451  0.88570223  0.11475992     1.39100
O994        O  0.40351115  0.90608859  0.09596300    -1.22400
O995        O  0.18132695  0.60845254  0.18114912    -0.84600
O996        O  0.12383565  0.58391971  0.22009572    -0.81700
C997        C  0.11533414  0.60837528  0.23833502     0.98800
O998        O  0.10355464  0.63580356  0.22458411    -0.81700
O999        O  0.09266982  0.68690823  0.17163779    -0.84400
C1000       C  0.11914833  0.70322875  0.15918405     1.03400
O1001       O  0.14263595  0.68777227  0.14436970    -0.77100
O1002       O  0.18349760  0.63489556  0.12944704    -0.77300
C1003       C  0.19814869  0.62523412  0.15731486     1.03300
O1004       O  0.15535053  0.57319768  0.12492648    -0.84600
O1005       O  0.09495967  0.55724586  0.15776765    -0.81700
C1006       C  0.06469457  0.56200301  0.16818756     0.98900
O1007       O  0.05942347  0.58731892  0.18718120    -0.81700
O1008       O  0.05341773  0.63427244  0.13751756    -0.84300
C1009       C  0.06079945  0.64543594  0.10762356     1.03300
O1010       O  0.08909990  0.66097120  0.10109172    -0.77100
O1011       O  0.12511470  0.60650615  0.09162783    -0.77300
C1012       C  0.13675803  0.57747403  0.09900375     1.03300
Cr1013     Cr  0.13738391  0.58346373  0.17056389     1.93700
Cr1014     Cr  0.08046909  0.63573179  0.17902768     1.93200
Cr1015     Cr  0.13422887  0.64586642  0.11964968     1.39100
O1016       O  0.11788524  0.62258329  0.15725069    -1.22400
O1017       O  0.30708527  0.66547472  0.10756395    -0.84600
O1018       O  0.35934602  0.71649540  0.11533616    -0.81700
C1019       C  0.38764480  0.72877685  0.12576155     0.98800
O1020       O  0.41244627  0.70935536  0.13157558    -0.81700
O1021       O  0.39049834  0.67029077  0.19001651    -0.84400
C1022       C  0.37404784  0.64660275  0.20727817     1.03400
O1023       O  0.36566866  0.61838661  0.19388376    -0.77100
O1024       O  0.30875703  0.63232688  0.15555422    -0.77300
C1025       C  0.29219556  0.65038625  0.13375322     1.03300
O1026       O  0.35487818  0.63116648  0.06406927    -0.84600
O1027       O  0.40338533  0.67864483  0.06775148    -0.81700
C1028       C  0.42912223  0.65929761  0.07258886     0.98900
O1029       O  0.43520188  0.64738563  0.10264905    -0.81700
O1030       O  0.42605273  0.61371170  0.16470988    -0.84300
C1031       C  0.42206571  0.58819309  0.14650770     1.03300
O1032       O  0.39277509  0.58185376  0.13481542    -0.77100
O1033       O  0.33427317  0.59231497  0.10189623    -0.77300
C1034       C  0.34574228  0.60070523  0.07228406     1.03300
Cr1035     Cr  0.35680939  0.67159637  0.09185272     1.93700
Cr1036     Cr  0.41295973  0.65972886  0.14586582     1.93200
Cr1037     Cr  0.35204523  0.60921077  0.14561834     1.39100
O1038       O  0.37283992  0.64764185  0.12825997    -1.22400
C1039       C  0.25415476  0.65153780  0.13702696    -0.15700
C1040       C  0.23587427  0.63127379  0.16041995    -0.30900
H1041       H  0.24065967  0.66625817  0.11702434     0.13300
H1042       H  0.24913778  0.61662837  0.18062240     0.13900
C1043       C  0.38510487  0.78860358  0.10397118    -0.15700
C1044       C  0.39402058  0.76616746  0.12923970    -0.30900
H1045       H  0.36981567  0.77910123  0.08287937     0.13300
H1046       H  0.41165740  0.77444184  0.14897367     0.13900
C1047       C  0.14554273  0.75960616  0.13990474    -0.15700
C1048       C  0.12125491  0.74136108  0.15879444    -0.30900
H1049       H  0.16651828  0.74643776  0.12794135     0.13300
H1050       H  0.10031693  0.75460472  0.17073764     0.13900
C1051       C  0.26441809  0.87371432  0.10928213    -0.15700
C1052       C  0.28630834  0.90001000  0.11451270    -0.30900
H1053       H  0.27275388  0.85259980  0.09408495     0.13300
H1054       H  0.27654796  0.92211249  0.12743061     0.13900
C1055       C  0.12864245  0.84414258  0.26867502    -0.15700
C1056       C  0.14855661  0.86770321  0.25005912    -0.30900
H1057       H  0.11549482  0.82340197  0.25580949     0.13300
H1058       H  0.16203428  0.88800735  0.26329639     0.13900
C1059       C  0.08991390  0.60853736  0.29591475    -0.15700
C1060       C  0.11727810  0.60285343  0.27611057    -0.30900
H1061       H  0.06736445  0.61991800  0.28400124     0.13300
H1062       H  0.13878841  0.58876075  0.28693789     0.13900
C1063       C  0.10809862  0.73009260  0.40379729    -0.15700
C1064       C  0.08078219  0.71088460  0.39496520    -0.30900
H1065       H  0.12898123  0.71795255  0.41792962     0.13300
H1066       H  0.06070554  0.72229916  0.37913580     0.13900
C1067       C  0.36646623  0.65028945  0.24409836    -0.15700
C1068       C  0.34525439  0.62745398  0.26153189    -0.30900
H1069       H  0.38036900  0.67021494  0.25747560     0.13300
H1070       H  0.33145951  0.60765614  0.24785737     0.13900
C1071       C  0.22362871  0.60451153  0.38697994    -0.15700
C1072       C  0.20323525  0.61648006  0.41157706    -0.30900
H1073       H  0.21233331  0.58862935  0.36746985     0.13300
H1074       H  0.21390206  0.63398248  0.43000137     0.13900
C1075       C  0.40079991  0.89293616  0.21520830    -0.15700
C1076       C  0.37193473  0.89102416  0.23416892    -0.30900
H1077       H  0.42507863  0.88734604  0.22775179     0.13300
H1078       H  0.34748680  0.89687065  0.22214344     0.13900
C1079       C  0.25286627  0.87032575  0.35625217    -0.15700
C1080       C  0.23614457  0.84788674  0.37870613    -0.30900
H1081       H  0.23875082  0.88899480  0.34047312     0.13300
H1082       H  0.25035930  0.83096327  0.39628816     0.13900
C1083       C  0.36139495  0.75610864  0.35053749    -0.15700
C1084       C  0.33987963  0.73777400  0.37275606    -0.30900
H1085       H  0.37732076  0.74263194  0.33270575     0.13300
H1086       H  0.32253759  0.75126276  0.38921563     0.13900
C1087       C  0.45375799  0.64973614  0.54295271     0.30700
C1088       C  0.00131617  0.63385334  0.99621462     0.30700
C1089       C  0.44070517  0.62945664  0.01414419    -0.05500
C1090       C  0.46928653  0.68010964  0.52245568    -0.06300
C1091       C  0.98484903  0.63328716  0.55825314    -0.06100
C1092       C  0.46610284  0.62028337  0.98969140    -0.05500
C1093       C  0.99445321  0.67336946  0.99996840    -0.06300
C1094       C  0.01063241  0.62546191  0.53393970    -0.06100
C1095       C  0.44991167  0.62081347  0.95823404    -0.31500
N1096       N  0.41792805  0.63263451  0.96129446     0.15000
C1097       C  0.41170049  0.63755429  0.99491151    -0.31500
H1098       H  0.38976114  0.65117067  0.00408913     0.16900
C1099       C  0.00771398  0.70585040  0.98972204    -0.30500
N1100       N  0.48932626  0.73035048  0.50352474     0.13700
C1101       C  0.46646007  0.71461469  0.52542413    -0.30500
C1102       C  0.04181388  0.63257419  0.54932662    -0.30800
N1103       N  0.03595641  0.64375407  0.58096015     0.14200
H1104       H  0.06695977  0.63275823  0.53724164     0.16800
C1105       C  0.00214187  0.64389436  0.58683154    -0.30800
H1106       H  0.99136084  0.65516973  0.60928476     0.16800
H1107       H  0.45014455  0.72719059  0.54339847     0.16800
H1108       H  0.46238051  0.61826539  0.93355602     0.16900
H1109       H  0.02891680  0.71098354  0.97190160     0.16800
C1110       C  0.03445562  0.84653169  0.96984028     0.30700
C1111       C  0.48510128  0.86319200  0.51240886     0.30700
C1112       C  0.50205079  0.86804654  0.95117005    -0.05500
C1113       C  0.01969101  0.81623707  0.99086447    -0.06300
C1114       C  0.04800162  0.86682086  0.49842580    -0.06100
C1115       C  0.47788581  0.87584364  0.47540067    -0.05500
C1116       C  0.49143565  0.82353577  0.50785474    -0.06300
C1117       C  0.52161272  0.87763352  0.51790766    -0.06100
C1118       C  0.44490623  0.86959682  0.95896175    -0.31500
N1119       N  0.45134327  0.85905727  0.92728886     0.15000
C1120       C  0.48516710  0.85872942  0.92187399    -0.31500
H1121       H  0.49601191  0.84751556  0.89943709     0.16900
C1122       C  0.47851350  0.79105294  0.51875562    -0.30500
N1123       N  0.49524518  0.76639982  0.50103588     0.13700
C1124       C  0.02199331  0.78188726  0.98678868    -0.30500
C1125       C  0.03802585  0.87319030  0.55473721    -0.30800
N1126       N  0.07028469  0.86233928  0.55149253     0.14200
H1127       H  0.02505425  0.87403147  0.57941121     0.16800
C1128       C  0.07682952  0.85815541  0.51774710    -0.30800
H1129       H  0.09933646  0.84562354  0.50835653     0.16800
H1130       H  0.03828730  0.76963073  0.96855791     0.16800
H1131       H  0.41957367  0.86889957  0.97068718     0.16900
H1132       H  0.45797658  0.78603654  0.53738578     0.16800
C1133       C  0.14561161  0.96144080  0.54835786     0.30700
C1134       C  0.13031887  0.51388318  0.99728727     0.30700
C1135       C  0.12587003  0.49165078  0.55864557    -0.05500
C1136       C  0.17504985  0.98238020  0.53295508    -0.06300
C1137       C  0.12680813  0.95081022  0.01528569    -0.06100
C1138       C  0.11614981  0.51578876  0.53155669    -0.05500
C1139       C  0.16971230  0.51015033  0.00522733    -0.06300
C1140       C  0.11858491  0.97663257  0.98952385    -0.06100
C1141       C  0.11358839  0.54723889  0.54651111    -0.31500
N1142       N  0.12442689  0.54451129  0.57918906     0.15000
C1143       C  0.13124608  0.51117020  0.58718934    -0.31500
H1144       H  0.14500979  0.50270207  0.61009032     0.16900
C1145       C  0.20166775  0.51852548  0.99066006    -0.30500
N1146       N  0.22430991  0.99882969  0.51128262     0.13700
C1147       C  0.20918184  0.97803653  0.53562488    -0.30500
C1148       C  0.12308460  0.96169279  0.95797546    -0.30800
N1149       N  0.13379801  0.92936911  0.96380509     0.14200
H1150       H  0.12202487  0.97435712  0.93257362     0.16800
C1151       C  0.13528258  0.92235952  0.99769893    -0.30800
H1152       H  0.14683513  0.89910401  0.00814830     0.16800
H1153       H  0.22182311  0.95920569  0.55232207     0.16800
H1154       H  0.11018741  0.57193045  0.53305140     0.16900
H1155       H  0.20617437  0.53458852  0.96747812     0.16800
C1156       C  0.35524805  0.98433816  0.51591631     0.30700
C1157       C  0.34085698  0.53830286  0.96500020     0.30700
C1158       C  0.36887773  0.97871954  0.47930309    -0.05500
C1159       C  0.31607671  0.98943198  0.50856215    -0.06300
C1160       C  0.37051442  0.52127881  0.52184265    -0.06100
C1161       C  0.36359028  0.00954737  0.95254235    -0.05500
C1162       C  0.31133048  0.51765430  0.98073910    -0.06300
C1163       C  0.36183970  0.54687210  0.49604368    -0.06100
C1164       C  0.35654674  0.98969914  0.92456484    -0.31500
N1165       N  0.36316885  0.95626170  0.93264511     0.15000
C1166       C  0.37475459  0.95370788  0.96510670    -0.31500
H1167       H  0.37816003  0.92917109  0.97892258     0.16900
C1168       C  0.27709215  0.52184627  0.97797910    -0.30500
N1169       N  0.26427361  0.49754586  0.50177331     0.13700
C1170       C  0.28407620  0.98001439  0.52205097    -0.30500
C1171       C  0.35224930  0.57510326  0.51362061    -0.30800
N1172       N  0.35400532  0.56818808  0.54762729     0.14200
H1173       H  0.34061695  0.59824147  0.50300515     0.16800
C1174       C  0.36526582  0.53598427  0.55334776    -0.30800
H1175       H  0.36668340  0.52326910  0.57870795     0.16800
H1176       H  0.27926713  0.96208628  0.54384026     0.16800
H1177       H  0.34256929  0.99827793  0.90184054     0.16900
H1178       H  0.26442191  0.54068232  0.96130151     0.16800
C1179       C  0.48542030  0.98702465  0.64006435     0.30700
C1180       C  0.03294550  0.53909002  0.65703221     0.30700
C1181       C  0.47781870  0.52384491  0.62812352    -0.05500
C1182       C  0.49063638  0.99349845  0.67952406    -0.06300
C1183       C  0.52225728  0.97955217  0.62934869    -0.06100
C1184       C  0.50312723  0.54916535  0.63678620    -0.05500
C1185       C  0.01433639  0.52177320  0.68725753    -0.06300
C1186       C  0.04506619  0.00655274  0.63761059    -0.06100
C1187       C  0.48461802  0.57755126  0.64620442    -0.31500
N1188       N  0.45070436  0.57067052  0.64246074     0.15000
C1189       C  0.44656394  0.53875160  0.63118543    -0.31500
H1190       H  0.42180618  0.52556719  0.63029887     0.16900
C1191       C  0.01708221  0.52553076  0.72157142    -0.30500
N1192       N  0.50044424  0.49679429  0.73633475     0.13700
C1193       C  0.47915407  0.98195289  0.71206907    -0.30500
C1194       C  0.07388055  0.98903458  0.64778027    -0.30800
N1195       N  0.06794755  0.95505294  0.64700979     0.14200
H1196       H  0.09658414  0.99958516  0.65965340     0.16800
C1197       C  0.03603586  0.94925677  0.63565913    -0.30800
H1198       H  0.02440277  0.92371676  0.63486465     0.16800
H1199       H  0.45954416  0.96214350  0.71739968     0.16800
H1200       H  0.49488232  0.59986547  0.65872301     0.16900
H1201       H  0.03435100  0.54311302  0.73415686     0.16800
C1202       C  0.00598006  0.50880976  0.86929206     0.30700
C1203       C  0.45432854  0.96125639  0.85266504     0.30700
C1204       C  0.46860946  0.51791971  0.87915925    -0.05500
C1205       C  0.99908589  0.50329563  0.83007095    -0.06300
C1206       C  0.01261987  0.97321364  0.88349260    -0.06100
C1207       C  0.44360279  0.49228037  0.87158743    -0.05500
C1208       C  0.47245070  0.97906566  0.82242575    -0.06300
C1209       C  0.98754419  0.94725647  0.87549756    -0.06100
C1210       C  0.41453961  0.51006495  0.86268727    -0.31500
N1211       N  0.42078423  0.54401621  0.86373976     0.15000
C1212       C  0.45319286  0.54954445  0.87365764    -0.31500
H1213       H  0.46549801  0.57488940  0.87340711     0.16900
C1214       C  0.46949664  0.97523494  0.78816613    -0.30500
N1215       N  0.49276793  0.99665735  0.77242787     0.13700
C1216       C  0.00975315  0.51578472  0.79764145    -0.30500
C1217       C  0.00589860  0.91833955  0.86810798    -0.30800
N1218       N  0.03961825  0.92547008  0.87191153     0.14200
H1219       H  0.99582114  0.89562108  0.85612875     0.16800
C1220       C  0.04380342  0.95785968  0.88197330    -0.30800
H1221       H  0.06861147  0.97098829  0.88235292     0.16800
H1222       H  0.02923725  0.53574355  0.79240636     0.16800
H1223       H  0.39114414  0.49984109  0.85187146     0.16900
H1224       H  0.45182840  0.95798134  0.77565855     0.16800
O1225       O  0.38965568  0.81271660  0.83849415    -0.84600
O1226       O  0.38220990  0.86437732  0.78624256    -0.81700
C1227       C  0.37205696  0.89241608  0.77256794     0.98800
O1228       O  0.36398982  0.91682699  0.79101463    -0.81700
O1229       O  0.30690299  0.89398280  0.83189237    -0.84400
C1230       C  0.29079311  0.87861919  0.85701266     1.03400
O1231       O  0.30597391  0.87092875  0.88502341    -0.77100
O1232       O  0.34258546  0.81401721  0.87084262    -0.77300
C1233       C  0.36354472  0.79764124  0.85322424     1.03300
O1234       O  0.43433693  0.86162571  0.87155335    -0.84600
O1235       O  0.42980894  0.91000552  0.82413223    -0.81700
C1236       C  0.42508406  0.93570556  0.84284014     0.98900
O1237       O  0.39500186  0.94170041  0.85263578    -0.81700
O1238       O  0.33532399  0.93105056  0.88682569    -0.84300
C1239       C  0.35434900  0.92740000  0.91262379     1.03300
O1240       O  0.36673716  0.89833449  0.91957285    -0.77100
O1241       O  0.39810649  0.83914245  0.90985713    -0.77300
C1242       C  0.42696877  0.85219055  0.90181970     1.03300
Cr1243     Cr  0.40577503  0.86275656  0.83141030     1.93700
Cr1244     Cr  0.35162412  0.91786421  0.84093260     1.93200
Cr1245     Cr  0.35422491  0.85726602  0.89330937     1.39100
O1246       O  0.36998334  0.87822494  0.85434418    -1.22400
O1247       O  0.31511405  0.68435994  0.89178319    -0.84600
O1248       O  0.27593424  0.62261203  0.90923509    -0.81700
C1249       C  0.26095041  0.61256553  0.88235604     0.98800
O1250       O  0.27839271  0.60427814  0.85692034    -0.81700
O1251       O  0.33408276  0.59867836  0.81381977    -0.84400
C1252       C  0.34526347  0.62667397  0.79878657     1.03400
O1253       O  0.35847730  0.65063099  0.81555336    -0.77100
O1254       O  0.36831105  0.68963251  0.87191462    -0.77300
C1255       C  0.33951895  0.70278674  0.87809476     1.03300
O1256       O  0.36945656  0.65788986  0.93526591    -0.84600
O1257       O  0.33746140  0.59739535  0.94377253    -0.81100
C1258       C  0.33021622  0.56658438  0.93787867     0.98900
O1259       O  0.31346037  0.56038305  0.91065789    -0.81700
O1260       O  0.36562068  0.55966089  0.86940003    -0.84300
C1261       C  0.39491614  0.56855585  0.85903742     1.03300
O1262       O  0.40119886  0.59827154  0.84559491    -0.77100
O1263       O  0.40559123  0.63190027  0.90317465    -0.77300
C1264       C  0.39695339  0.64165249  0.93221198     1.03300
Cr1265     Cr  0.32499777  0.63949632  0.91705488     1.93700
Cr1266     Cr  0.32386835  0.58403419  0.86347533     1.93200
Cr1267     Cr  0.38036386  0.64159098  0.86050922     1.39100
O1268       O  0.34234046  0.62233444  0.87940233    -1.22400
O1269       O  0.05563424  0.66045799  0.91085392    -0.84600
O1270       O  0.06599251  0.62614140  0.85266329    -0.81700
C1271       C  0.08251708  0.60709805  0.83345193     0.98800
O1272       O  0.09322877  0.57813586  0.84478542    -0.81700
O1273       O  0.14917590  0.58827081  0.88640033    -0.84400
C1274       C  0.16609463  0.59943657  0.91140926     1.03400
O1275       O  0.15154215  0.60263786  0.93996348    -0.77100
O1276       O  0.10974948  0.65832224  0.92604048    -0.77300
C1277       C  0.08448700  0.67517425  0.91454963     1.03300
O1278       O  0.01977738  0.60364840  0.94371084    -0.84600
O1279       O  0.02525954  0.56845530  0.87853271    -0.81700
C1280       C  0.03309679  0.53688616  0.88088396     0.98900
O1281       O  0.06199604  0.52909513  0.89424331    -0.81700
O1282       O  0.12309688  0.53656008  0.93700800    -0.84300
C1283       C  0.11710315  0.54054670  0.96891021     1.03300
O1284       O  0.09954147  0.56636752  0.97728726    -0.77100
O1285       O  0.05955845  0.62914356  0.97325477    -0.77300
C1286       C  0.02810641  0.62153063  0.96937348     1.03300
Cr1287     Cr  0.04488882  0.61240439  0.89804521     1.93700
Cr1288     Cr  0.10474933  0.56070448  0.89274515     1.93200
Cr1289     Cr  0.10306664  0.61230344  0.95101320     1.39100
O1290       O  0.08387956  0.59452629  0.91408039    -1.22400
O1291       O  0.10604144  0.82215015  0.82663394    -0.84600
O1292       O  0.08875942  0.78399941  0.88910390    -0.81700
C1293       C  0.11566370  0.76914109  0.89969818     0.98800
O1294       O  0.14160596  0.78664817  0.90773958    -0.81700
O1295       O  0.18492109  0.84321931  0.91355839    -0.84400
C1296       C  0.19911872  0.85367933  0.88515583     1.03400
O1297       O  0.18178844  0.86598544  0.86051642    -0.77100
O1298       O  0.12595357  0.87584256  0.82034467    -0.77300
C1299       C  0.11975073  0.84670334  0.80798626     1.03300
O1300       O  0.06404407  0.87672274  0.84934516    -0.84600
O1301       O  0.05526415  0.84534224  0.91121995    -0.81700
C1302       C  0.06127583  0.83715496  0.94226461     0.98900
O1303       O  0.08848820  0.82059825  0.94929966    -0.81700
O1304       O  0.12913432  0.87387579  0.94950634    -0.84300
C1305       C  0.13910955  0.90353410  0.94012512     1.03300
O1306       O  0.15347318  0.90969963  0.91119848    -0.77100
O1307       O  0.09672011  0.91330359  0.87538117    -0.77300
C1308       C  0.06781957  0.90447603  0.86462530     1.03300
Cr1309     Cr  0.08130607  0.83257222  0.87017006     1.93700
Cr1310     Cr  0.13537065  0.83202212  0.92686181     1.93200
Cr1311     Cr  0.13820829  0.88828266  0.86795755     1.39100
O1312       O  0.11913785  0.85025588  0.88777850    -1.22400
O1313       O  0.15719674  0.89933981  0.69947400    -0.84600
O1314       O  0.21187455  0.89602001  0.65366509    -0.81700
C1315       C  0.22836768  0.88819868  0.62734857     0.98800
O1316       O  0.21244739  0.87775081  0.60133689    -0.81700
O1317       O  0.17453983  0.81557899  0.62077834    -0.84400
C1318       C  0.15019117  0.79717636  0.63468969     1.03400
O1319       O  0.12143343  0.81021568  0.64108488    -0.77100
O1320       O  0.12945677  0.84900874  0.69737228    -0.77300
C1321       C  0.14448465  0.87180070  0.71424805     1.03300
O1322       O  0.12365301  0.93994315  0.64599320    -0.84600
O1323       O  0.17359547  0.93966261  0.60240986    -0.81700
C1324       C  0.15661840  0.93317116  0.57535275     0.98900
O1325       O  0.14990648  0.90221868  0.56924653    -0.81700
O1326       O  0.11982828  0.84004849  0.57769070    -0.84300
C1327       C  0.09194623  0.85547171  0.58046033     1.03300
O1328       O  0.08364159  0.86667984  0.60896991    -0.77100
O1329       O  0.08663804  0.90072569  0.66598126    -0.77300
C1330       C  0.09370975  0.93068435  0.65373578     1.03300
Cr1331     Cr  0.16552821  0.91531685  0.64966458     1.93700
Cr1332     Cr  0.16363863  0.86012331  0.59543819     1.93200
Cr1333     Cr  0.10848684  0.85782596  0.65196486     1.39100
O1334       O  0.14665891  0.87718958  0.63343135    -1.22400
O1335       O  0.40115427  0.83402625  0.57619353    -0.84600
O1336       O  0.34310538  0.87001538  0.58498706    -0.81700
C1337       C  0.32346955  0.89134830  0.59778592     0.98800
O1338       O  0.33484890  0.92084020  0.60551956    -0.81700
O1339       O  0.37754655  0.91166211  0.66093052    -0.84400
C1340       C  0.40248780  0.90050120  0.67841261     1.03400
O1341       O  0.43171648  0.89814981  0.66460123    -0.77100
O1342       O  0.42345079  0.84148036  0.62720339    -0.77300
C1343       C  0.41011127  0.82213863  0.60568571     1.03300
O1344       O  0.43031659  0.88915741  0.53177266    -0.84600
O1345       O  0.36590608  0.92509061  0.53823448    -0.81700
C1346       C  0.36859629  0.95715407  0.54361024     0.98900
O1347       O  0.38392243  0.96648826  0.57079959    -0.81700
O1348       O  0.42654262  0.96261577  0.63288606    -0.84300
C1349       C  0.45860639  0.95951848  0.62713470     1.03300
O1350       O  0.46815670  0.93406809  0.60997119    -0.77100
O1351       O  0.46481650  0.87016057  0.57202020    -0.77300
C1352       C  0.45828851  0.87464557  0.54010275     1.03300
Cr1353     Cr  0.38705606  0.88191528  0.56080970     1.93700
Cr1354     Cr  0.38301416  0.93767013  0.61562207     1.93200
Cr1355     Cr  0.44377937  0.88770021  0.61613431     1.39100
O1356       O  0.40487855  0.90288306  0.59703152    -1.22400
O1357       O  0.17907114  0.60692638  0.68071430    -0.84600
O1358       O  0.11989816  0.58456849  0.71979420    -0.81700
C1359       C  0.11055177  0.60857280  0.73814510     0.98800
O1360       O  0.10157922  0.63695176  0.72425600    -0.81700
O1361       O  0.09681599  0.68855172  0.67160379    -0.84400
C1362       C  0.12355055  0.70318107  0.65764240     1.03400
O1363       O  0.14445253  0.68674270  0.64009749    -0.77100
O1364       O  0.18155339  0.62995287  0.62758075    -0.77300
C1365       C  0.19614080  0.62164624  0.65582292     1.03300
O1366       O  0.15182594  0.56989089  0.62522729    -0.84600
O1367       O  0.09146871  0.55980524  0.65771920    -0.81700
C1368       C  0.06115699  0.56553903  0.66675076     0.98900
O1369       O  0.05543334  0.59164054  0.68459691    -0.81700
O1370       O  0.05262943  0.64029355  0.63689770    -0.84300
C1371       C  0.06055470  0.64958227  0.60669432     1.03300
O1372       O  0.08994473  0.66162680  0.59903217    -0.77100
O1373       O  0.12140195  0.60252755  0.59147381    -0.77300
C1374       C  0.13328484  0.57341994  0.59905930     1.03300
Cr1375     Cr  0.13430990  0.58343939  0.67050165     1.93700
Cr1376     Cr  0.07990928  0.63876572  0.67804198     1.93200
Cr1377     Cr  0.13334722  0.64360415  0.61762237     1.39100
O1378       O  0.11638527  0.62304093  0.65630297    -1.22400
O1379       O  0.30395916  0.65621401  0.60109007    -0.84600
O1380       O  0.34999334  0.71162759  0.60603904    -0.81700
C1381       C  0.37696883  0.72809693  0.61325576     0.98800
O1382       O  0.40301192  0.71208681  0.62398136    -0.81700
O1383       O  0.38395363  0.67445139  0.68617215    -0.84400
C1384       C  0.36977585  0.65018595  0.70480141     1.03400
O1385       O  0.36300663  0.62102550  0.69256881    -0.77100
O1386       O  0.30659391  0.62867857  0.65215681    -0.77300
C1387       C  0.28953335  0.64351866  0.62859414     1.03300
O1388       O  0.35698973  0.62390938  0.56266996    -0.84600
O1389       O  0.40037728  0.67570467  0.56392919    -0.81700
C1390       C  0.42747512  0.65894569  0.57080010     0.98900
O1391       O  0.43366397  0.65019715  0.60170484    -0.81700
O1392       O  0.42561544  0.61948309  0.66452212    -0.84300
C1393       C  0.42224263  0.59175861  0.64926685     1.03300
O1394       O  0.39352640  0.58327402  0.63771534    -0.77100
O1395       O  0.33677608  0.58612711  0.60167547    -0.77300
C1396       C  0.34868073  0.59365395  0.57191749     1.03300
Cr1397     Cr  0.35354313  0.66570790  0.58676296     1.93700
Cr1398     Cr  0.40847645  0.66341056  0.64292867     1.93200
Cr1399     Cr  0.35134203  0.60787861  0.64488980     1.39100
O1400       O  0.37011402  0.64633689  0.62535439    -1.22400
C1401       C  0.25169496  0.64409043  0.63187978    -0.15700
C1402       C  0.23388751  0.62698799  0.65785524    -0.30900
H1403       H  0.23795667  0.65631907  0.61046763     0.13300
H1404       H  0.24732497  0.61479744  0.67947344     0.13900
C1405       C  0.40657051  0.78494783  0.61501349    -0.15700
C1406       C  0.37905504  0.76589107  0.60609788    -0.30900
H1407       H  0.42655242  0.77327219  0.63078346     0.13300
H1408       H  0.35818578  0.77813518  0.59205783     0.13900
C1409       C  0.15320071  0.75937796  0.64111767    -0.15700
C1410       C  0.12862727  0.74095874  0.65951362    -0.30900
H1411       H  0.17347145  0.74632931  0.62791039     0.13300
H1412       H  0.10882237  0.75443870  0.67300320     0.13900
C1413       C  0.26622120  0.89425772  0.62620126    -0.15700
C1414       C  0.28638489  0.88204496  0.60150291    -0.30900
H1415       H  0.27765466  0.91024104  0.64555273     0.13300
H1416       H  0.27542890  0.86438110  0.58339877     0.13900
C1417       C  0.12650780  0.84320547  0.77069772    -0.15700
C1418       C  0.14498616  0.86792923  0.75230830    -0.30900
H1419       H  0.11392432  0.82211396  0.75785156     0.13300
H1420       H  0.15771385  0.88863923  0.76563867     0.13900
C1421       C  0.08840865  0.61870748  0.79687005    -0.15700
C1422       C  0.10853756  0.60129246  0.77584803    -0.30900
H1423       H  0.07508152  0.64130763  0.78679724     0.13300
H1424       H  0.12127207  0.57835857  0.78601106     0.13900
C1425       C  0.11605170  0.73128232  0.90558305    -0.15700
C1426       C  0.08672438  0.71252388  0.90604611    -0.30900
H1427       H  0.14017135  0.71908648  0.91202660     0.13300
H1428       H  0.06269594  0.72515284  0.90003915     0.13900
C1429       C  0.36312511  0.65419248  0.74197896    -0.15700
C1430       C  0.34518474  0.62949669  0.76077107    -0.30900
H1431       H  0.37520894  0.67582775  0.75440559     0.13300
H1432       H  0.33314284  0.60808236  0.74791281     0.13900
C1433       C  0.22296810  0.60770417  0.88104784    -0.15700
C1434       C  0.20341546  0.60809727  0.90960509    -0.30900
H1435       H  0.21132143  0.60097487  0.85682465     0.13300
H1436       H  0.21556595  0.61436080  0.93374647     0.13900
C1437       C  0.39870297  0.89029530  0.71547292    -0.15700
C1438       C  0.37155657  0.89834601  0.73472492    -0.30900
H1439       H  0.42018981  0.87744745  0.72790786     0.13300
H1440       H  0.35125315  0.91378413  0.72331640     0.13900
C1441       C  0.25348821  0.87160530  0.85546126    -0.15700
C1442       C  0.23675997  0.85422487  0.88189611    -0.30900
H1443       H  0.23939530  0.88281812  0.83377109     0.13300
H1444       H  0.25103228  0.84316743  0.90355218     0.13900
C1445       C  0.35958562  0.75952202  0.85223821    -0.15700
C1446       C  0.33602809  0.74064397  0.87152427    -0.30900
H1447       H  0.37941351  0.74631410  0.83851333     0.13300
H1448       H  0.31571125  0.75341559  0.88494779     0.13900
C1449       C  0.95189795  0.15126672  0.04183074     0.30700
C1450       C  0.49949696  0.13252694  0.49431593     0.30700
C1451       C  0.93969844  0.12640794  0.51174228    -0.05500
C1452       C  0.96819835  0.18128052  0.02174730    -0.06300
C1453       C  0.48695356  0.13201238  0.05682483    -0.06100
C1454       C  0.96565501  0.11722479  0.48780606    -0.05500
C1455       C  0.49247867  0.17205215  0.49741135    -0.06300
C1456       C  0.51209984  0.12465022  0.03175515    -0.06100
C1457       C  0.94968314  0.11545187  0.45641057    -0.31500
N1458       N  0.91723946  0.12601505  0.45898036     0.15000
C1459       C  0.91051230  0.13211252  0.49219225    -0.31500
H1460       H  0.88807430  0.14548619  0.50052586     0.16900
C1461       C  0.50681895  0.20407365  0.48745087    -0.30500
N1462       N  0.99054254  0.23096056  0.00475633     0.13700
C1463       C  0.96674339  0.21562020  0.02578319    -0.30500
C1464       C  0.54375879  0.13139758  0.04665214    -0.30800
N1465       N  0.53867890  0.14199392  0.07862866     0.14200
H1466       H  0.56865651  0.13188511  0.03403924     0.16800
C1467       C  0.50501105  0.14189387  0.08523148    -0.30800
H1468       H  0.49479554  0.15284067  0.10812613     0.16800
H1469       H  0.95092977  0.22823260  0.04417519     0.16800
H1470       H  0.96250573  0.11283295  0.43191000     0.16900
H1471       H  0.52859372  0.20854608  0.47022864     0.16800
C1472       C  0.53789234  0.34453676  0.46702464     0.30700
C1473       C  0.98947200  0.36281854  0.01684664     0.30700
C1474       C  0.00539839  0.36189841  0.45533297    -0.05500
C1475       C  0.52050355  0.31424433  0.48619958    -0.06300
C1476       C  0.54989073  0.36781074  0.99607306    -0.06100
C1477       C  0.98161661  0.37498886  0.97945690    -0.05500
C1478       C  0.99537573  0.32337586  0.01208660    -0.06300
C1479       C  0.02639297  0.37559572  0.02342641    -0.06100
C1480       C  0.94840341  0.36191957  0.46433191    -0.31500
N1481       N  0.95429807  0.35051791  0.43278092     0.15000
C1482       C  0.98814858  0.35065472  0.42694398    -0.31500
H1483       H  0.99903373  0.33951349  0.40447324     0.16900
C1484       C  0.98152344  0.29115002  0.02191930    -0.30500
N1485       N  0.99804986  0.26665493  0.00386751     0.13700
C1486       C  0.52163330  0.27981895  0.48217542    -0.30500
C1487       C  0.54132031  0.37024732  0.05300211    -0.30800
N1488       N  0.57395954  0.36072653  0.04763261     0.14200
H1489       H  0.52933556  0.37004174  0.07825678     0.16800
C1490       C  0.57951569  0.35988623  0.01355890    -0.30800
H1491       H  0.60213080  0.34889364  0.00265908     0.16800
H1492       H  0.53740744  0.26701893  0.46388393     0.16800
H1493       H  0.92324718  0.36182995  0.47639626     0.16900
H1494       H  0.96025328  0.28627903  0.03969246     0.16800
C1495       C  0.64665728  0.46440438  0.04849760     0.30700
C1496       C  0.62616090  0.00917149  0.49430802     0.30700
C1497       C  0.62476423  0.99063357  0.05562760    -0.05500
C1498       C  0.67653485  0.48521736  0.03328881    -0.06300
C1499       C  0.62946028  0.44919714  0.51472505    -0.06100
C1500       C  0.61541420  0.01592827  0.02939563    -0.05500
C1501       C  0.66532628  0.00373997  0.50181484    -0.06300
C1502       C  0.62199169  0.47371146  0.48736970    -0.06100
C1503       C  0.61491780  0.04701453  0.04495509    -0.31500
N1504       N  0.62667426  0.04304377  0.07722440     0.15000
C1505       C  0.63227343  0.00927193  0.08435879    -0.31500
H1506       H  0.64621298  0.99964889  0.10671825     0.16900
C1507       C  0.69759442  0.01456837  0.48987749    -0.30500
N1508       N  0.72636566  0.49972730  0.01094343     0.13700
C1509       C  0.71077474  0.48039024  0.03620147    -0.30500
C1510       C  0.62851815  0.45785531  0.45704067    -0.30800
N1511       N  0.63903830  0.42575628  0.46458990     0.14200
H1512       H  0.62867389  0.46974081  0.43121997     0.16800
C1513       C  0.63959609  0.42008373  0.49903762    -0.30800
H1514       H  0.65059593  0.39754301  0.51167841     0.16800
H1515       H  0.72318508  0.46224562  0.05380825     0.16800
H1516       H  0.61227890  0.07206648  0.03191938     0.16900
H1517       H  0.70278326  0.03386779  0.46935861     0.16800
C1518       C  0.85824388  0.48558576  0.01678146     0.30700
C1519       C  0.83763462  0.03303503  0.46524710     0.30700
C1520       C  0.87217305  0.48058557  0.98019371    -0.05500
C1521       C  0.81877100  0.49081621  0.00954858    -0.06300
C1522       C  0.86914566  0.02421580  0.02284093    -0.06100
C1523       C  0.86461781  0.50326202  0.45399853    -0.05500
C1524       C  0.80739451  0.01443546  0.48245214    -0.06300
C1525       C  0.86091963  0.04898934  0.99606518    -0.06100
C1526       C  0.85864176  0.48373673  0.42562759    -0.31500
N1527       N  0.86490259  0.45027588  0.43382288     0.15000
C1528       C  0.87542658  0.44737108  0.46659404    -0.31500
H1529       H  0.87820703  0.42268423  0.48028808     0.16900
C1530       C  0.77327090  0.01900554  0.47930040    -0.30500
N1531       N  0.76296839  0.00014469  0.00328067     0.13700
C1532       C  0.78638878  0.48093964  0.02242709    -0.30500
C1533       C  0.85135317  0.07783586  0.01265723    -0.30800
N1534       N  0.85252777  0.07153812  0.04675594     0.14200
H1535       H  0.84003462  0.10085692  0.00138876     0.16800
C1536       C  0.86345414  0.03960080  0.05362270    -0.30800
H1537       H  0.86352786  0.02738853  0.07929306     0.16800
H1538       H  0.78131522  0.46271206  0.04389850     0.16800
H1539       H  0.84543452  0.49249182  0.40248077     0.16900
H1540       H  0.76088002  0.03739407  0.46186857     0.16800
C1541       C  0.98541129  0.48787082  0.14267053     0.30700
C1542       C  0.53528938  0.03580279  0.15421833     0.30700
C1543       C  0.98347877  0.02749709  0.12408243    -0.05500
C1544       C  0.99348276  0.49179209  0.18209568    -0.06300
C1545       C  0.02134018  0.48224402  0.12757100    -0.06100
C1546       C  0.00681900  0.05389759  0.13457446    -0.05500
C1547       C  0.51698398  0.01811009  0.18439601    -0.06300
C1548       C  0.54787437  0.50304047  0.13529858    -0.06100
C1549       C  0.98638600  0.08137625  0.14250523    -0.31500
N1550       N  0.95316030  0.07336445  0.13627910     0.15000
C1551       C  0.95138237  0.04169481  0.12380671    -0.31500
H1552       H  0.92734313  0.02784476  0.12016421     0.16900
C1553       C  0.51925630  0.02207979  0.21872373    -0.30500
N1554       N  0.99936842  0.00070402  0.23568824     0.13700
C1555       C  0.98250354  0.47948826  0.21461991    -0.30500
C1556       C  0.57587906  0.48350944  0.14500543    -0.30800
N1557       N  0.56857315  0.45003942  0.14053703     0.14200
H1558       H  0.59801388  0.49221951  0.15918617     0.16800
C1559       C  0.53694024  0.44673851  0.12816773    -0.30800
H1560       H  0.52393003  0.42187884  0.12734150     0.16800
H1561       H  0.96218246  0.46039251  0.21983375     0.16800
H1562       H  0.99460733  0.10341835  0.15670133     0.16900
H1563       H  0.53604071  0.04002329  0.23143565     0.16800
C1564       C  0.50437023  0.00717888  0.36637450     0.30700
C1565       C  0.95867387  0.45719198  0.35582864     0.30700
C1566       C  0.96670833  0.01265581  0.37808472    -0.05500
C1567       C  0.49769205  0.00210074  0.32701066    -0.06300
C1568       C  0.51152002  0.47064545  0.38267332    -0.06100
C1569       C  0.94270139  0.98591202  0.36984675    -0.05500
C1570       C  0.97743635  0.47420234  0.32539392    -0.06300
C1571       C  0.48739668  0.44444422  0.37324486    -0.06100
C1572       C  0.91303729  0.00223901  0.36058913    -0.31500
N1573       N  0.91800984  0.03650407  0.36187870     0.15000
C1574       C  0.95002298  0.04336977  0.37243267    -0.31500
H1575       H  0.96129407  0.06915605  0.37259317     0.16900
C1576       C  0.97476672  0.47017904  0.29104257    -0.30500
N1577       N  0.99723350  0.49253145  0.27520169     0.13700
C1578       C  0.50920578  0.01417253  0.29470963    -0.30500
C1579       C  0.50717768  0.41644981  0.36536311    -0.30800
N1580       N  0.54067935  0.42402993  0.37088409     0.14200
H1581       H  0.49819807  0.39408051  0.35207517     0.16800
C1582       C  0.54332429  0.45609087  0.38233697    -0.30800
H1583       H  0.56761662  0.46985370  0.38492190     0.16800
H1584       H  0.52881111  0.03406437  0.28971047     0.16800
H1585       H  0.89068641  0.99055281  0.34909549     0.16900
H1586       H  0.95748248  0.45254598  0.27854362     0.16800
O1587       O  0.89476349  0.30684612  0.34128316    -0.84600
O1588       O  0.89032862  0.35902530  0.28842529    -0.81700
C1589       C  0.88144988  0.38753506  0.27463263     0.98800
O1590       O  0.87220347  0.41148093  0.29309087    -0.81700
O1591       O  0.81250075  0.38906345  0.33105477    -0.84400
C1592       C  0.79516209  0.37405327  0.35558775     1.03400
O1593       O  0.80935130  0.36530524  0.38389446    -0.77100
O1594       O  0.84654624  0.30818037  0.37186025    -0.77300
C1595       C  0.86808363  0.29178608  0.35498576     1.03300
O1596       O  0.93802188  0.35527263  0.37672374    -0.84600
O1597       O  0.93600473  0.40422428  0.32885978    -0.81700
C1598       C  0.93028562  0.43052289  0.34649096     0.98900
O1599       O  0.89992289  0.43616142  0.35562196    -0.81700
O1600       O  0.83866905  0.42539010  0.38708506    -0.84300
C1601       C  0.85657726  0.42156189  0.41361134     1.03300
O1602       O  0.86845057  0.39243460  0.42118614    -0.77100
O1603       O  0.90029736  0.33338164  0.41392612    -0.77300
C1604       C  0.92982148  0.34537518  0.40672354     1.03300
Cr1605     Cr  0.91144862  0.35692952  0.33505769     1.93700
Cr1606     Cr  0.85712005  0.41234080  0.34213390     1.93200
Cr1607     Cr  0.85717924  0.35148821  0.39461491     1.39100
O1608       O  0.87470311  0.37249241  0.35634637    -1.22400
O1609       O  0.81564528  0.17888635  0.38958730    -0.84600
O1610       O  0.77498385  0.11807532  0.40823171    -0.81700
C1611       C  0.75958507  0.10831407  0.38147924     0.98800
O1612       O  0.77666555  0.09965259  0.35593705    -0.81700
O1613       O  0.83201003  0.09281839  0.31213592    -0.84400
C1614       C  0.84374177  0.12087718  0.29740227     1.03400
O1615       O  0.85699002  0.14445437  0.31455244    -0.77100
O1616       O  0.86918985  0.18267256  0.37063417    -0.77300
C1617       C  0.84083424  0.19676853  0.37665794     1.03300
O1618       O  0.86952864  0.15157021  0.43251128    -0.84600
O1619       O  0.83611229  0.09202181  0.44279175    -0.81100
C1620       C  0.82787010  0.06133104  0.43744903     0.98900
O1621       O  0.81110208  0.05518467  0.41007784    -0.81700
O1622       O  0.86277110  0.05240951  0.36764494    -0.84300
C1623       C  0.89196113  0.06078461  0.35667345     1.03300
O1624       O  0.89836727  0.09037945  0.34296469    -0.77100
O1625       O  0.90464255  0.12347897  0.40108830    -0.77300
C1626       C  0.89642869  0.13435178  0.42979219     1.03300
Cr1627     Cr  0.82448586  0.13400966  0.41535852     1.93700
Cr1628     Cr  0.82161971  0.07814799  0.36218571     1.93200
Cr1629     Cr  0.87936475  0.13424082  0.35874904     1.39100
O1630       O  0.84111816  0.11599624  0.37788649    -1.22400
O1631       O  0.55520050  0.15919808  0.40915311    -0.84600
O1632       O  0.56472654  0.12462828  0.35069102    -0.81700
C1633       C  0.58131048  0.10545385  0.33160964     0.98800
O1634       O  0.59195014  0.07660046  0.34315769    -0.81700
O1635       O  0.64753282  0.08629006  0.38532496    -0.84400
C1636       C  0.66453174  0.09669451  0.41062231     1.03400
O1637       O  0.64988333  0.09954912  0.43920568    -0.77100
O1638       O  0.60900498  0.15616698  0.42539753    -0.77300
C1639       C  0.58424139  0.17349234  0.41338258     1.03300
O1640       O  0.51813511  0.10258711  0.44178956    -0.84600
O1641       O  0.52299154  0.06722667  0.37676945    -0.81700
C1642       C  0.53098482  0.03561476  0.37861302     0.98900
O1643       O  0.55991485  0.02777035  0.39190402    -0.81700
O1644       O  0.62051169  0.03428934  0.43506879    -0.84300
C1645       C  0.61408876  0.03746367  0.46698031     1.03300
O1646       O  0.59709670  0.06352474  0.47588524    -0.77100
O1647       O  0.55795441  0.12727241  0.47185915    -0.77300
C1648       C  0.52644908  0.12011388  0.46765595     1.03300
Cr1649     Cr  0.54348055  0.11115174  0.39626095     1.93700
Cr1650     Cr  0.60288134  0.05900079  0.39103695     1.93200
Cr1651     Cr  0.60139371  0.10986290  0.44991511     1.39100
O1652       O  0.58219497  0.09276134  0.41253096    -1.22400
O1653       O  0.60896789  0.32246948  0.32374878    -0.84600
O1654       O  0.59083819  0.28259270  0.38548610    -0.81700
C1655       C  0.61743929  0.26715033  0.39599825     0.98800
O1656       O  0.64380672  0.28430838  0.40345070    -0.81700
O1657       O  0.68794145  0.34004470  0.41049461    -0.84400
C1658       C  0.70216852  0.35206007  0.38261753     1.03400
O1659       O  0.68496968  0.36630352  0.35882378    -0.77100
O1660       O  0.62892498  0.37632224  0.31863229    -0.77300
C1661       C  0.62241275  0.34751087  0.30555519     1.03300
O1662       O  0.56689538  0.37645969  0.34737989    -0.84600
O1663       O  0.55813887  0.34369779  0.40843258    -0.81700
C1664       C  0.56416294  0.33482933  0.43923707     0.98900
O1665       O  0.59120740  0.31783297  0.44598685    -0.81700
O1666       O  0.63389266  0.37025961  0.44917699    -0.84300
C1667       C  0.64401741  0.40006953  0.44057851     1.03300
O1668       O  0.65644067  0.40744091  0.41094870    -0.77100
O1669       O  0.59849801  0.41241874  0.37525758    -0.77300
C1670       C  0.56977444  0.40373719  0.36364295     1.03300
Cr1671     Cr  0.58415384  0.33180502  0.36740086     1.93700
Cr1672     Cr  0.63842866  0.32922359  0.42409933     1.93200
Cr1673     Cr  0.64080388  0.38769834  0.36697731     1.39100
O1674       O  0.62203043  0.34897108  0.38566602    -1.22400
O1675       O  0.67103971  0.38942536  0.19509626    -0.84600
O1676       O  0.70968460  0.41600063  0.13740220    -0.81700
C1677       C  0.72892644  0.39199373  0.12912215     0.98800
O1678       O  0.71603546  0.36448053  0.11791007    -0.81700
O1679       O  0.66521790  0.31257284  0.10692951    -0.84400
C1680       C  0.65199723  0.29558301  0.13301295     1.03400
O1681       O  0.63556988  0.31046101  0.15571498    -0.77100
O1682       O  0.62029409  0.36238093  0.19675402    -0.77300
C1683       C  0.64744042  0.37233556  0.21175404     1.03300
O1684       O  0.61431628  0.42525266  0.16938952    -0.84600
O1685       O  0.64628677  0.44268344  0.10857882    -0.81700
C1686       C  0.65681355  0.43837664  0.07828257     0.98900
O1687       O  0.67679271  0.41338451  0.07332985    -0.81700
O1688       O  0.62960949  0.36528669  0.06599158    -0.84300
C1689       C  0.59978923  0.35444397  0.07290872     1.03300
O1690       O  0.59271845  0.33944194  0.10173775    -0.77100
O1691       O  0.58235873  0.39298107  0.13837584    -0.77300
C1692       C  0.58868212  0.42155577  0.15063068     1.03300
Cr1693     Cr  0.66001943  0.41543540  0.15105563     1.93700
Cr1694     Cr  0.67063191  0.36424733  0.09425648     1.93200
Cr1695     Cr  0.61076480  0.35303750  0.14727862     1.39100
O1696       O  0.64796156  0.37658968  0.13139976    -1.22400
O1697       O  0.88111553  0.33888631  0.08622674    -0.84600
O1698       O  0.83843171  0.39354293  0.07435683    -0.81700
C1699       C  0.82481721  0.39689430  0.10342616     0.98800
O1700       O  0.84212222  0.40949880  0.12744239    -0.81700
O1701       O  0.89888728  0.41925898  0.16792631    -0.84400
C1702       C  0.90850627  0.38971632  0.17890473     1.03400
O1703       O  0.92388945  0.37027497  0.15926279    -0.77100
O1704       O  0.93523743  0.33666432  0.10093139    -0.77300
C1705       C  0.90642094  0.32196336  0.09741679     1.03300
O1706       O  0.93093427  0.36954715  0.03881784    -0.84600
O1707       O  0.88864234  0.43162743  0.03503526    -0.81700
C1708       C  0.87166073  0.45762914  0.04424163     0.98900
O1709       O  0.86687393  0.46124676  0.07640801    -0.81700
O1710       O  0.92928503  0.46822387  0.11743548    -0.84300
C1711       C  0.95787796  0.46014009  0.13125510     1.03300
O1712       O  0.96497495  0.42837829  0.13456645    -0.77100
O1713       O  0.97151337  0.39301791  0.06934099    -0.77300
C1714       C  0.96270991  0.37575957  0.04338515     1.03300
Cr1715     Cr  0.88693036  0.38526939  0.06154973     1.93700
Cr1716     Cr  0.88639194  0.43683827  0.12005467     1.93200
Cr1717     Cr  0.94558945  0.38451283  0.11443056     1.39100
O1718       O  0.90672502  0.40292244  0.09825747    -1.22400
O1719       O  0.68041110  0.10378559  0.18058724    -0.84600
O1720       O  0.62034319  0.08162420  0.21829828    -0.81700
C1721       C  0.61076849  0.10570983  0.23651557     0.98800
O1722       O  0.60269561  0.13428255  0.22243978    -0.81700
O1723       O  0.59899839  0.18614907  0.16970855    -0.84400
C1724       C  0.62588952  0.20079278  0.15593254     1.03400
O1725       O  0.64705672  0.18420618  0.13894181    -0.77100
O1726       O  0.68399149  0.12720618  0.12762174    -0.77300
C1727       C  0.69786706  0.11893534  0.15626221     1.03300
O1728       O  0.65424875  0.06715841  0.12401499    -0.84600
O1729       O  0.59351652  0.05708232  0.15531163    -0.81700
C1730       C  0.56314535  0.06264405  0.16410848     0.98900
O1731       O  0.55719090  0.08879076  0.18191828    -0.81700
O1732       O  0.55545112  0.13761924  0.13438442    -0.84300
C1733       C  0.56353926  0.14717703  0.10431338     1.03300
O1734       O  0.59304012  0.15918743  0.09691606    -0.77100
O1735       O  0.62469220  0.10058763  0.09016270    -0.77300
C1736       C  0.63614127  0.07132951  0.09757349     1.03300
Cr1737     Cr  0.63597316  0.08056052  0.16917634     1.93700
Cr1738     Cr  0.58186049  0.13613547  0.17590066     1.93200
Cr1739     Cr  0.63620331  0.14118016  0.11648535     1.39100
O1740       O  0.61856928  0.12040135  0.15478359    -1.22400
O1741       O  0.80387092  0.15654256  0.10274825    -0.84600
O1742       O  0.84808144  0.21164268  0.10940745    -0.81700
C1743       C  0.87462957  0.22869685  0.11622427     0.98800
O1744       O  0.90165243  0.21324667  0.12531093    -0.81700
O1745       O  0.88418132  0.17289189  0.18685356    -0.84400
C1746       C  0.87094632  0.14749851  0.20471804     1.03400
O1747       O  0.86597262  0.11851142  0.19156425    -0.77100
O1748       O  0.80818255  0.12880015  0.15362809    -0.77300
C1749       C  0.79039031  0.14372917  0.13063567     1.03300
O1750       O  0.85643368  0.12686907  0.06201177    -0.84600
O1751       O  0.89927236  0.17839770  0.06420899    -0.81700
C1752       C  0.92633743  0.16116692  0.07018010     0.98900
O1753       O  0.93337869  0.15253173  0.10085774    -0.81700
O1754       O  0.92622718  0.11928748  0.16193278    -0.84300
C1755       C  0.92363749  0.09254627  0.14482229     1.03300
O1756       O  0.89479784  0.08367106  0.13355562    -0.77100
O1757       O  0.83529755  0.08900390  0.10040243    -0.77300
C1758       C  0.84722545  0.09683499  0.07078207     1.03300
Cr1759     Cr  0.85277682  0.16731427  0.08768106     1.93700
Cr1760     Cr  0.90853522  0.16403035  0.14274213     1.93200
Cr1761     Cr  0.85240624  0.10786806  0.14377796     1.39100
O1762       O  0.87033388  0.14697950  0.12518874    -1.22400
C1763       C  0.75277748  0.14409530  0.13462544    -0.15700
C1764       C  0.73533621  0.12492852  0.15932867    -0.30900
H1765       H  0.73881150  0.15758394  0.11411068     0.13300
H1766       H  0.74888589  0.11144409  0.18011720     0.13900
C1767       C  0.90422286  0.28458817  0.10587351    -0.15700
C1768       C  0.87463508  0.26657192  0.11032334    -0.30900
H1769       H  0.92843217  0.27141289  0.10903263     0.13300
H1770       H  0.85026721  0.27934250  0.10686061     0.13900
C1771       C  0.65312391  0.25729109  0.13605825    -0.15700
C1772       C  0.63153128  0.23858575  0.15791787    -0.30900
H1773       H  0.66873869  0.24432171  0.11757021     0.13300
H1774       H  0.61465958  0.25176986  0.17510647     0.13900
C1775       C  0.76670710  0.39802641  0.13106701    -0.15700
C1776       C  0.78814180  0.38586183  0.10757749    -0.30900
H1777       H  0.77641498  0.41665265  0.14889057     0.13300
H1778       H  0.77752531  0.36961359  0.08799770     0.13900
C1779       C  0.62780479  0.34491748  0.26793641    -0.15700
C1780       C  0.64939069  0.36704821  0.24976263    -0.30900
H1781       H  0.61171525  0.32662423  0.25460497     0.13300
H1782       H  0.66669697  0.38403078  0.26333134     0.13900
C1783       C  0.58766731  0.11666741  0.29493077    -0.15700
C1784       C  0.60746870  0.09844187  0.27419704    -0.30900
H1785       H  0.57518102  0.13967422  0.28461358     0.13300
H1786       H  0.61929986  0.07510432  0.28462500     0.13900
C1787       C  0.61701977  0.22916562  0.40258492    -0.15700
C1788       C  0.58724800  0.21098390  0.40474948    -0.30900
H1789       H  0.64107278  0.21644416  0.40812632     0.13300
H1790       H  0.56336896  0.22418942  0.39955743     0.13900
C1791       C  0.86313377  0.14998025  0.24186938    -0.15700
C1792       C  0.84483189  0.12449902  0.25937492    -0.30900
H1793       H  0.87438052  0.17139860  0.25531059     0.13300
H1794       H  0.83347925  0.10338959  0.24553345     0.13900
C1795       C  0.72150208  0.10428048  0.38036269    -0.15700
C1796       C  0.70201725  0.10475553  0.40898811    -0.30900
H1797       H  0.70963608  0.09801835  0.35610491     0.13300
H1798       H  0.71431897  0.11047965  0.43320341     0.13900
C1799       C  0.90293039  0.37780992  0.21547927    -0.15700
C1800       C  0.88329769  0.39517873  0.23693896    -0.30900
H1801       H  0.91600067  0.35488486  0.22513441     0.13300
H1802       H  0.87073964  0.41834714  0.22710805     0.13900
C1803       C  0.75752699  0.36875518  0.35326101    -0.15700
C1804       C  0.73984787  0.35151399  0.37920094    -0.30900
H1805       H  0.74410614  0.38111005  0.33171618     0.13300
H1806       H  0.75357926  0.33920897  0.40057794     0.13900
C1807       C  0.86382401  0.25366830  0.35353370    -0.15700
C1808       C  0.83879335  0.23491400  0.37098534    -0.30900
H1809       H  0.88417419  0.24031787  0.34074337     0.13300
H1810       H  0.81802725  0.24789517  0.38349066     0.13900
C1811       C  0.95201005  0.15027989  0.53964465     0.30700
C1812       C  0.50296258  0.13519383  0.99461459     0.30700
C1813       C  0.93826555  0.12928702  0.01285465    -0.05500
C1814       C  0.96624851  0.18055833  0.51797807    -0.06300
C1815       C  0.48280468  0.13074295  0.55648820    -0.06100
C1816       C  0.96372724  0.11959140  0.98869451    -0.05500
C1817       C  0.49527288  0.17440463  0.99818851    -0.06300
C1818       C  0.50791470  0.12208489  0.53181886    -0.06100
C1819       C  0.94823150  0.12008900  0.95711082    -0.31500
N1820       N  0.91631390  0.13170218  0.95984264     0.15000
C1821       C  0.90955754  0.13714180  0.99321893    -0.31500
H1822       H  0.88749924  0.15093796  0.00182807     0.16900
C1823       C  0.50729457  0.20669779  0.98642292    -0.30500
N1824       N  0.99112906  0.23020179  0.50481200     0.13700
C1825       C  0.96595100  0.21466848  0.52393434    -0.30500
C1826       C  0.53960969  0.12753020  0.54718720    -0.30800
N1827       N  0.53480491  0.13888253  0.57899183     0.14200
H1828       H  0.56460456  0.12626407  0.53503412     0.16800
C1829       C  0.50103041  0.14051228  0.58505147    -0.30800
H1830       H  0.49099937  0.15233506  0.60754208     0.16800
H1831       H  0.95085541  0.22662778  0.54336101     0.16800
H1832       H  0.96118513  0.11849007  0.93252969     0.16900
H1833       H  0.52765673  0.21173770  0.96760234     0.16800
C1834       C  0.53649104  0.34734509  0.96614353     0.30700
C1835       C  0.98822971  0.36126001  0.51719085     0.30700
C1836       C  0.00677921  0.36689710  0.95453497    -0.05500
C1837       C  0.51869074  0.31683926  0.98450812    -0.06300
C1838       C  0.55163731  0.36557267  0.49635484    -0.06100
C1839       C  0.97957299  0.36964541  0.47954240    -0.05500
C1840       C  0.99783247  0.32211680  0.51580199    -0.06300
C1841       C  0.02415996  0.37856567  0.52186177    -0.06100
C1842       C  0.95002107  0.36996648  0.96359087    -0.31500
N1843       N  0.95509874  0.35936420  0.93151209     0.15000
C1844       C  0.98887150  0.35818588  0.92553229    -0.31500
H1845       H  0.99910976  0.34672578  0.90293736     0.16900
C1846       C  0.98283482  0.28988027  0.52379193    -0.30500
N1847       N  0.00017753  0.26543563  0.50647062     0.13700
C1848       C  0.52013178  0.28249982  0.98030471    -0.30500
C1849       C  0.54332057  0.36867467  0.55332416    -0.30800
N1850       N  0.57550026  0.35853201  0.54775926     0.14200
H1851       H  0.53142631  0.36838190  0.57863753     0.16800
C1852       C  0.58117714  0.35751008  0.51376388    -0.30800
H1853       H  0.60369454  0.34620784  0.50298320     0.16800
H1854       H  0.53658755  0.26987676  0.96251442     0.16800
H1855       H  0.92494952  0.37039868  0.97571376     0.16900
H1856       H  0.95957546  0.28516907  0.53889273     0.16800
C1857       C  0.64624365  0.46395891  0.54667536     0.30700
C1858       C  0.63162799  0.01212096  0.99339089     0.30700
C1859       C  0.62120021  0.98864830  0.55685312    -0.05500
C1860       C  0.67645452  0.48415716  0.53143330    -0.06300
C1861       C  0.63035382  0.44934407  0.01631591    -0.06100
C1862       C  0.61182131  0.01394106  0.53082359    -0.05500
C1863       C  0.67070936  0.00770263  0.00263923    -0.06300
C1864       C  0.62233373  0.47376595  0.98901707    -0.06100
C1865       C  0.61323486  0.04526776  0.54591557    -0.31500
N1866       N  0.62540534  0.04131013  0.57787657     0.15000
C1867       C  0.63022824  0.00741094  0.58521302    -0.31500
H1868       H  0.64425820  0.99760505  0.60743055     0.16900
C1869       C  0.70316291  0.01833454  0.99098106    -0.30500
N1870       N  0.72666977  0.50034700  0.51116168     0.13700
C1871       C  0.71067673  0.48015869  0.53554598    -0.30500
C1872       C  0.62891971  0.45804575  0.95863421    -0.30800
N1873       N  0.63996628  0.42604997  0.96594342     0.14200
H1874       H  0.62850668  0.46999092  0.93285429     0.16800
C1875       C  0.64099419  0.42040494  0.00041380    -0.30800
H1876       H  0.65248788  0.39804377  0.01286080     0.16800
H1877       H  0.72289334  0.46192230  0.55324443     0.16800
H1878       H  0.61210817  0.07039203  0.53274284     0.16900
H1879       H  0.70848428  0.03697630  0.96992578     0.16800
C1880       C  0.85773775  0.48422166  0.51694131     0.30700
C1881       C  0.84236189  0.03497007  0.96454391     0.30700
C1882       C  0.87393722  0.47903183  0.48113958    -0.05500
C1883       C  0.81852590  0.48781426  0.50775802    -0.06300
C1884       C  0.86508271  0.02035906  0.52284373    -0.06100
C1885       C  0.86274574  0.50562484  0.95395174    -0.05500
C1886       C  0.81256973  0.01547129  0.98127153    -0.06300
C1887       C  0.85740535  0.04580070  0.49639143    -0.06100
C1888       C  0.85510575  0.48692172  0.92533115    -0.31500
N1889       N  0.86067833  0.45323394  0.93277638     0.15000
C1890       C  0.87160262  0.44927441  0.96519381    -0.31500
H1891       H  0.87281574  0.42414439  0.97835460     0.16900
C1892       C  0.77846124  0.02038908  0.97867102    -0.30500
N1893       N  0.75757472  0.99742496  0.50271096     0.13700
C1894       C  0.78638868  0.48084390  0.52272856    -0.30500
C1895       C  0.84962961  0.07518256  0.51284871    -0.30800
N1896       N  0.85101255  0.06916318  0.54693263     0.14200
H1897       H  0.83900728  0.09851576  0.50149152     0.16800
C1898       C  0.86049802  0.03645981  0.55376001    -0.30800
H1899       H  0.86075764  0.02443166  0.57948108     0.16800
H1900       H  0.78149680  0.46508207  0.54606466     0.16800
H1901       H  0.84176743  0.49644809  0.90256043     0.16900
H1902       H  0.76604557  0.03874701  0.96126998     0.16800
C1903       C  0.98542255  0.48877303  0.64107971     0.30700
C1904       C  0.53419313  0.03629832  0.65601521     0.30700
C1905       C  0.97710752  0.02461221  0.62549417    -0.05500
C1906       C  0.98966974  0.49603342  0.68041496    -0.06300
C1907       C  0.02234076  0.48177755  0.63097569    -0.06100
C1908       C  0.00158568  0.05077608  0.63408181    -0.05500
C1909       C  0.51595907  0.01870602  0.68629589    -0.06300
C1910       C  0.54657632  0.50453862  0.63402225    -0.06100
C1911       C  0.98244580  0.07931561  0.64123828    -0.31500
N1912       N  0.94884901  0.07175265  0.63680248     0.15000
C1913       C  0.94548799  0.03946879  0.62639028    -0.31500
H1914       H  0.92089522  0.02593362  0.62581979     0.16900
C1915       C  0.51945015  0.02203082  0.72058107    -0.30500
N1916       N  0.99474462  0.00160162  0.73694017     0.13700
C1917       C  0.97784857  0.48449216  0.71282178    -0.30500
C1918       C  0.57468514  0.48459557  0.64227965    -0.30800
N1919       N  0.56721611  0.45132512  0.63707353     0.14200
H1920       H  0.59696547  0.49272698  0.65657759     0.16800
C1921       C  0.53533088  0.44869221  0.62478847    -0.30800
H1922       H  0.52246380  0.42406832  0.62175387     0.16800
H1923       H  0.95889100  0.46402611  0.71802874     0.16800
H1924       H  0.99186958  0.10193090  0.65384418     0.16900
H1925       H  0.53701769  0.03942379  0.73304872     0.16800
C1926       C  0.50373537  0.01000917  0.86872224     0.30700
C1927       C  0.95679159  0.45921599  0.85391726     0.30700
C1928       C  0.96996212  0.01732578  0.88115513    -0.05500
C1929       C  0.49821087  0.00382247  0.82924259    -0.06300
C1930       C  0.51124160  0.47377337  0.88399628    -0.06100
C1931       C  0.94463023  0.99133863  0.87445810    -0.05500
C1932       C  0.97381175  0.47799843  0.82345827    -0.06300
C1933       C  0.48710383  0.44770723  0.87435238    -0.06100
C1934       C  0.91530495  0.00856616  0.86617927    -0.31500
N1935       N  0.92135764  0.04251610  0.86610908     0.15000
C1936       C  0.95381821  0.04869144  0.87568390    -0.31500
H1937       H  0.96549735  0.07428609  0.87505137     0.16900
C1938       C  0.96954273  0.47561754  0.78908452    -0.30500
N1939       N  0.99149964  0.49851578  0.77329675     0.13700
C1940       C  0.51060012  0.01445368  0.79676301    -0.30500
C1941       C  0.50697691  0.41982060  0.86627315    -0.30800
N1942       N  0.54044760  0.42726898  0.87214984     0.14200
H1943       H  0.49812467  0.39776235  0.85243264     0.16800
C1944       C  0.54300299  0.45907107  0.88411898    -0.30800
H1945       H  0.56731443  0.47265714  0.88711634     0.16800
H1946       H  0.53097289  0.03347333  0.79149069     0.16800
H1947       H  0.89206151  0.99791621  0.85548230     0.16900
H1948       H  0.95183338  0.45842272  0.77655463     0.16800
O1949       O  0.89415948  0.30924096  0.84194244    -0.84600
O1950       O  0.88642083  0.35981747  0.78878746    -0.81700
C1951       C  0.87589288  0.38746380  0.77449112     0.98800
O1952       O  0.86883673  0.41263388  0.79219318    -0.81700
O1953       O  0.81041473  0.39013332  0.83078264    -0.84400
C1954       C  0.79352602  0.37447039  0.85523615     1.03400
O1955       O  0.80787962  0.36592298  0.88354903    -0.77100
O1956       O  0.84691234  0.31027488  0.87383522    -0.77300
C1957       C  0.86782618  0.29412377  0.85617164     1.03300
O1958       O  0.93746201  0.35974663  0.87551001    -0.84600
O1959       O  0.93299656  0.40707829  0.82626077    -0.81700
C1960       C  0.92783450  0.43304012  0.84449737     0.98900
O1961       O  0.89756935  0.43859988  0.85417697    -0.81700
O1962       O  0.83567530  0.42832663  0.88551138    -0.84300
C1963       C  0.85315720  0.42479960  0.91224557     1.03300
O1964       O  0.86576865  0.39615821  0.92000525    -0.77100
O1965       O  0.90072655  0.33984703  0.91478775    -0.77300
C1966       C  0.92992945  0.35220588  0.90630158     1.03300
Cr1967     Cr  0.90953781  0.35952495  0.83442367     1.93700
Cr1968     Cr  0.85463379  0.41430291  0.84122385     1.93200
Cr1969     Cr  0.85630504  0.35452020  0.89489454     1.39100
O1970       O  0.87294759  0.37498845  0.85608057    -1.22400
O1971       O  0.81453696  0.18136510  0.89013160    -0.84600
O1972       O  0.77607303  0.11916815  0.90944713    -0.81700
C1973       C  0.76043918  0.10806898  0.88352612     0.98800
O1974       O  0.77711389  0.09947602  0.85758774    -0.81700
O1975       O  0.83261033  0.09612716  0.81231431    -0.84400
C1976       C  0.84466186  0.12390344  0.79726662     1.03400
O1977       O  0.85863612  0.14738601  0.81405571    -0.77100
O1978       O  0.86779434  0.18622623  0.87024217    -0.77300
C1979       C  0.83929504  0.19967132  0.87671624     1.03300
O1980       O  0.86864264  0.15638376  0.93293569    -0.84600
O1981       O  0.83830003  0.09435184  0.94265555    -0.81100
C1982       C  0.83161558  0.06323410  0.93698819     0.98900
O1983       O  0.81482285  0.05660919  0.90985256    -0.81700
O1984       O  0.86564523  0.05698738  0.86758127    -0.84300
C1985       C  0.89529604  0.06632923  0.85892157     1.03300
O1986       O  0.90155312  0.09566133  0.84481165    -0.77100
O1987       O  0.90473038  0.12931743  0.90194458    -0.77300
C1988       C  0.89596442  0.14008033  0.93048685     1.03300
Cr1989     Cr  0.82484592  0.13657385  0.91575261     1.93700
Cr1990     Cr  0.82353587  0.08069122  0.86239627     1.93200
Cr1991     Cr  0.88001710  0.13853641  0.85915965     1.39100
O1992       O  0.84186191  0.11927740  0.87798509    -1.22400
O1993       O  0.56489600  0.15555158  0.88055023    -0.84600
O1994       O  0.55647787  0.09820430  0.84403447    -0.81700
C1995       C  0.58575080  0.09723990  0.83018485     0.98800
O1996       O  0.61107023  0.08673946  0.84759850    -0.81700
O1997       O  0.65375680  0.07688496  0.90332892    -0.84400
C1998       C  0.66513310  0.10615458  0.91163837     1.03400
O1999       O  0.64547056  0.12735823  0.92449686    -0.77100
O2000       O  0.58752660  0.16353224  0.93140867    -0.77300
C2001       C  0.57854703  0.17510184  0.90173960     1.03300
O2002       O  0.52330099  0.12748254  0.93555534    -0.84600
O2003       O  0.52095990  0.06275813  0.89910648    -0.81700
C2004       C  0.53053363  0.03747735  0.88167597     0.98900
O2005       O  0.56253806  0.03477808  0.87542553    -0.81700
O2006       O  0.60488716  0.03073908  0.93750269    -0.84300
C2007       C  0.61912693  0.03985747  0.96536711     1.03300
O2008       O  0.62152643  0.07198879  0.97098033    -0.77100
O2009       O  0.55758576  0.10906158  0.97631815    -0.77300
C2010       C  0.52975263  0.12353524  0.96745318     1.03300
Cr2011     Cr  0.54468869  0.10932136  0.89217338     1.93700
Cr2012     Cr  0.60579646  0.06003623  0.89282894     1.93200
Cr2013     Cr  0.60113079  0.11562735  0.94781714     1.39100
O2014       O  0.58363398  0.09455028  0.91152047    -1.22400
O2015       O  0.60726025  0.32623613  0.82274922    -0.84600
O2016       O  0.58684551  0.28575072  0.88329356    -0.81700
C2017       C  0.61249314  0.26906046  0.89402746     0.98800
O2018       O  0.63952805  0.28492559  0.90203038    -0.81700
O2019       O  0.68638979  0.33872792  0.90927625    -0.84400
C2020       C  0.70078225  0.35171435  0.88187105     1.03400
O2021       O  0.68394901  0.36772987  0.85887892    -0.77100
O2022       O  0.62829040  0.37973818  0.81872671    -0.77300
C2023       C  0.62130078  0.35130709  0.80506809     1.03300
O2024       O  0.56673241  0.38077483  0.84697217    -0.84600
O2025       O  0.55708369  0.34727627  0.90773760    -0.81700
C2026       C  0.56282066  0.33784123  0.93848515     0.98900
O2027       O  0.58938806  0.32018614  0.94527775    -0.81700
O2028       O  0.63456132  0.37058009  0.94971566    -0.84300
C2029       C  0.64465854  0.40054005  0.94153115     1.03300
O2030       O  0.65639265  0.40844421  0.91175559    -0.77100
O2031       O  0.59830975  0.41522592  0.87642977    -0.77300
C2032       C  0.56959230  0.40729215  0.86428411     1.03300
Cr2033     Cr  0.58249759  0.33544419  0.86640699     1.93700
Cr2034     Cr  0.63670716  0.32986476  0.92332744     1.93200
Cr2035     Cr  0.64024776  0.38983597  0.86748441     1.39100
O2036       O  0.62076131  0.35105283  0.88530532    -1.22400
O2037       O  0.67010893  0.39247209  0.69406362    -0.84600
O2038       O  0.70879735  0.41785585  0.63479409    -0.81700
C2039       C  0.72842593  0.39410023  0.62640979     0.98800
O2040       O  0.71574454  0.36541921  0.61824970    -0.81700
O2041       O  0.66572230  0.31275344  0.60898601    -0.84400
C2042       C  0.65180854  0.29612133  0.63491766     1.03400
O2043       O  0.63488114  0.31138694  0.65710564    -0.77100
O2044       O  0.61930446  0.36540496  0.69622750    -0.77300
C2045       C  0.64638306  0.37587029  0.71107024     1.03300
O2046       O  0.61282867  0.42685619  0.66690116    -0.84600
O2047       O  0.64500232  0.44258594  0.60635030    -0.81700
C2048       C  0.65594609  0.43787421  0.57639231     0.98900
O2049       O  0.67597422  0.41272866  0.57193501    -0.81700
O2050       O  0.63054075  0.36334986  0.56607877    -0.84300
C2051       C  0.60086186  0.35255841  0.57307609     1.03300
O2052       O  0.59325232  0.33862429  0.60219336    -0.77100
O2053       O  0.58131779  0.39384820  0.63628043    -0.77300
C2054       C  0.58735024  0.42281594  0.64784378     1.03300
Cr2055     Cr  0.65899045  0.41695460  0.64924460     1.93700
Cr2056     Cr  0.67070709  0.36397773  0.59457280     1.93200
Cr2057     Cr  0.61016688  0.35409370  0.64714961     1.39100
O2058       O  0.64744088  0.37731419  0.63091862    -1.22400
O2059       O  0.90210373  0.33428223  0.58008281    -0.84600
O2060       O  0.84450398  0.37050133  0.58838482    -0.81700
C2061       C  0.82496008  0.39165713  0.60164848     0.98800
O2062       O  0.83623592  0.42139601  0.60832758    -0.81700
O2063       O  0.87943196  0.41113902  0.66350298    -0.84400
C2064       C  0.90479276  0.40030295  0.68066837     1.03400
O2065       O  0.93404656  0.39978798  0.66681374    -0.77100
O2066       O  0.92552693  0.34209048  0.63057562    -0.77300
C2067       C  0.91119609  0.32271571  0.60959388     1.03300
O2068       O  0.93235801  0.38703170  0.53440837    -0.84600
O2069       O  0.86829353  0.42517605  0.54051194    -0.81700
C2070       C  0.87049687  0.45739385  0.54563282     0.98900
O2071       O  0.88469796  0.46709352  0.57333050    -0.81700
O2072       O  0.92742751  0.46314313  0.63507171    -0.84300
C2073       C  0.95936805  0.46062540  0.62871951     1.03300
O2074       O  0.96930249  0.43513980  0.61178984    -0.77100
O2075       O  0.96709904  0.37035566  0.57561249    -0.77300
C2076       C  0.96060179  0.37327087  0.54367062     1.03300
Cr2077     Cr  0.88867312  0.38177590  0.56374322     1.93700
Cr2078     Cr  0.88433092  0.43788750  0.61818329     1.93200
Cr2079     Cr  0.94564624  0.38852167  0.61882388     1.39100
O2080       O  0.90660895  0.40328386  0.59951948    -1.22400
O2081       O  0.68024644  0.10479649  0.67839082    -0.84600
O2082       O  0.62254963  0.08234380  0.71795770    -0.81700
C2083       C  0.61468669  0.10717771  0.73581583     0.98800
O2084       O  0.60405333  0.13480015  0.72160190    -0.81700
O2085       O  0.59756807  0.18598988  0.66905369    -0.84400
C2086       C  0.62386561  0.20095609  0.65455503     1.03400
O2087       O  0.64417678  0.18475707  0.63613061    -0.77100
O2088       O  0.68232715  0.12829668  0.62539412    -0.77300
C2089       C  0.69683943  0.12045629  0.65378949     1.03300
O2090       O  0.65355012  0.06640292  0.62368090    -0.84600
O2091       O  0.59309946  0.05637290  0.65647389    -0.81700
C2092       C  0.56283877  0.06236151  0.66559485     0.98900
O2093       O  0.55737857  0.08859597  0.68332786    -0.81700
O2094       O  0.55303126  0.13669788  0.63485873    -0.84300
C2095       C  0.56031613  0.14491726  0.60416763     1.03300
O2096       O  0.58972901  0.15655974  0.59560952    -0.77100
O2097       O  0.62314945  0.09901119  0.58988905    -0.77300
C2098       C  0.63503287  0.06997065  0.59758999     1.03300
Cr2099     Cr  0.63593507  0.08068390  0.66857926     1.93700
Cr2100     Cr  0.58123954  0.13588704  0.67583700     1.93200
Cr2101     Cr  0.63392097  0.14060108  0.61492158     1.39100
O2102       O  0.61753271  0.12014251  0.65391199    -1.22400
O2103       O  0.80297577  0.15870617  0.60002490    -0.84600
O2104       O  0.84997624  0.21339330  0.60441633    -0.81700
C2105       C  0.87693051  0.22923335  0.61296070     0.98800
O2106       O  0.90273069  0.21267947  0.62332156    -0.81700
O2107       O  0.88369970  0.17402510  0.68495756    -0.84400
C2108       C  0.86954740  0.14945654  0.70331329     1.03400
O2109       O  0.86279999  0.12064406  0.69050234    -0.77100
O2110       O  0.80617742  0.13155711  0.65130110    -0.77300
C2111       C  0.78892922  0.14638268  0.62786388     1.03300
O2112       O  0.85494806  0.12533679  0.56081072    -0.84600
O2113       O  0.89892041  0.17655056  0.56132034    -0.81700
C2114       C  0.92593700  0.15958515  0.56790330     0.98900
O2115       O  0.93243370  0.15099371  0.59884898    -0.81700
O2116       O  0.92381228  0.11907370  0.66117608    -0.84300
C2117       C  0.92022664  0.09202423  0.64490646     1.03300
O2118       O  0.89120279  0.08364300  0.63396997    -0.77100
O2119       O  0.83308439  0.08876219  0.59990614    -0.77300
C2120       C  0.84578512  0.09538043  0.57039121     1.03300
Cr2121     Cr  0.85240637  0.16735852  0.58494358     1.93700
Cr2122     Cr  0.90768400  0.16366650  0.64088069     1.93200
Cr2123     Cr  0.84975311  0.10922278  0.64277551     1.39100
O2124       O  0.86899680  0.14753823  0.62335288    -1.22400
C2125       C  0.75125286  0.14670887  0.63151665    -0.15700
C2126       C  0.73412391  0.12752235  0.65645607    -0.30900
H2127       H  0.73714876  0.15962354  0.61074971     0.13300
H2128       H  0.74795045  0.11458716  0.67739427     0.13900
C2129       C  0.90631360  0.28569902  0.61920628    -0.15700
C2130       C  0.87940417  0.26718213  0.60779771    -0.30900
H2131       H  0.92514580  0.27348871  0.63602904     0.13300
H2132       H  0.85961941  0.28001109  0.59265606     0.13900
C2133       C  0.65275780  0.25773813  0.63781686    -0.15700
C2134       C  0.62976322  0.23870905  0.65778405    -0.30900
H2135       H  0.66936463  0.24498474  0.62004726     0.13300
H2136       H  0.61214522  0.25170162  0.67438314     0.13900
C2137       C  0.76603042  0.40175605  0.62403228    -0.15700
C2138       C  0.78825592  0.38148190  0.60814270    -0.30900
H2139       H  0.77521878  0.42635155  0.63320897     0.13300
H2140       H  0.77907694  0.35705122  0.59860433     0.13900
C2141       C  0.62677493  0.34910603  0.76741810    -0.15700
C2142       C  0.64808460  0.37146589  0.74917763    -0.30900
H2143       H  0.61110911  0.33046055  0.75408612     0.13300
H2144       H  0.66505176  0.38888817  0.76261360     0.13900
C2145       C  0.58881048  0.10809901  0.79322488    -0.15700
C2146       C  0.61628552  0.10207461  0.77367520    -0.30900
H2147       H  0.56637889  0.11941820  0.78101674     0.13300
H2148       H  0.63770133  0.08809173  0.78483941     0.13900
C2149       C  0.61005639  0.23115910  0.90063554    -0.15700
C2150       C  0.58240740  0.21224347  0.89185003    -0.30900
H2151       H  0.63081317  0.21870068  0.91467589     0.13300
H2152       H  0.56245610  0.22403173  0.87612852     0.13900
C2153       C  0.86279818  0.15250182  0.74072852    -0.15700
C2154       C  0.84477275  0.12735354  0.75911666    -0.30900
H2155       H  0.87479386  0.17388208  0.75362993     0.13300
H2156       H  0.83273278  0.10624715  0.74580515     0.13900
C2157       C  0.72262874  0.10220327  0.88437674    -0.15700
C2158       C  0.70221548  0.11535821  0.90828492    -0.30900
H2159       H  0.71140718  0.08558320  0.86544817     0.13300
H2160       H  0.71295811  0.13358088  0.92597003     0.13900
C2161       C  0.90191058  0.38854193  0.71734704    -0.15700
C2162       C  0.87389033  0.39244325  0.73673292    -0.30900
H2163       H  0.92484381  0.37827471  0.72953982     0.13300
H2164       H  0.85174923  0.40530698  0.72567845     0.13900
C2165       C  0.75603828  0.36841068  0.85268796    -0.15700
C2166       C  0.73841997  0.35045213  0.87817509    -0.30900
H2167       H  0.74253466  0.38126947  0.83148311     0.13300
H2168       H  0.75219174  0.33753438  0.89917247     0.13900
C2169       C  0.86290136  0.25623695  0.85419011    -0.15700
C2170       C  0.83719762  0.23773564  0.87100354    -0.30900
H2171       H  0.88321429  0.24278844  0.84143914     0.13300
H2172       H  0.81640926  0.25082125  0.88334844     0.13900
C2173       C  0.95311262  0.64998336  0.04449195     0.30700
C2174       C  0.50287264  0.63387147  0.49516350     0.30700
C2175       C  0.94021177  0.62733605  0.51522053    -0.05500
C2176       C  0.96955815  0.68020774  0.02486002    -0.06300
C2177       C  0.48635347  0.63214643  0.05682672    -0.06100
C2178       C  0.96625790  0.61782846  0.49158389    -0.05500
C2179       C  0.49441684  0.67324434  0.49770361    -0.06300
C2180       C  0.51168191  0.62519797  0.03181616    -0.06100
C2181       C  0.95057388  0.61639773  0.46001546    -0.31500
N2182       N  0.91832134  0.62749449  0.46227447     0.15000
C2183       C  0.91136399  0.63367591  0.49539780    -0.31500
H2184       H  0.88904933  0.64737535  0.50350931     0.16900
C2185       C  0.50678464  0.70575848  0.48642906    -0.30500
N2186       N  0.99084388  0.73024426  0.00764578     0.13700
C2187       C  0.96760936  0.71448807  0.02897221    -0.30500
C2188       C  0.54318557  0.63188258  0.04708600    -0.30800
N2189       N  0.53772675  0.64169354  0.07931948     0.14200
H2190       H  0.56818131  0.63274992  0.03464613     0.16800
C2191       C  0.50405509  0.64131914  0.08565582    -0.30800
H2192       H  0.49368845  0.65163790  0.10879326     0.16800
H2193       H  0.95181036  0.72684264  0.04755049     0.16800
H2194       H  0.96338565  0.61328229  0.43562120     0.16900
H2195       H  0.52784248  0.71083103  0.46842011     0.16800
C2196       C  0.53346202  0.84669164  0.46384920     0.30700
C2197       C  0.98389618  0.86186115  0.01653418     0.30700
C2198       C  0.00320863  0.86804896  0.45405682    -0.05500
C2199       C  0.51622016  0.81647870  0.48287159    -0.06300
C2200       C  0.54519220  0.87075270  0.99598171    -0.06100
C2201       C  0.97567475  0.87056596  0.97888712    -0.05500
C2202       C  0.99376686  0.82281207  0.01492517    -0.06300
C2203       C  0.01951024  0.87968470  0.02138300    -0.06100
C2204       C  0.94725887  0.87614115  0.46435707    -0.31500
N2205       N  0.95013949  0.86357728  0.43290888     0.15000
C2206       C  0.98350185  0.85903019  0.42598885    -0.31500
H2207       H  0.99213821  0.84502204  0.40424789     0.16900
C2208       C  0.97998126  0.79033291  0.02405082    -0.30500
N2209       N  0.99782144  0.76603366  0.00698949     0.13700
C2210       C  0.51820385  0.78202976  0.47919888    -0.30500
C2211       C  0.53357829  0.87867089  0.05181183    -0.30800
N2212       N  0.56595203  0.86784301  0.04952529     0.14200
H2213       H  0.52021490  0.88024255  0.07616753     0.16800
C2214       C  0.57355611  0.86348849  0.01609251    -0.30800
H2215       H  0.59625383  0.85066242  0.00753101     0.16800
H2216       H  0.53444047  0.76942516  0.46118032     0.16800
H2217       H  0.92288130  0.87839848  0.47748958     0.16900
H2218       H  0.95742164  0.78521883  0.04009012     0.16800
C2219       C  0.64691901  0.96140307  0.04318952     0.30700
C2220       C  0.63121531  0.51135966  0.49384522     0.30700
C2221       C  0.62246539  0.49302362  0.05811372    -0.05500
C2222       C  0.67720869  0.98155820  0.02804966    -0.06300
C2223       C  0.62241669  0.94649823  0.51192135    -0.06100
C2224       C  0.61320385  0.51672142  0.03054251    -0.05500
C2225       C  0.67007704  0.50837838  0.50428959    -0.06300
C2226       C  0.61476024  0.97242587  0.48600699    -0.06100
C2227       C  0.61129120  0.54853493  0.04472463    -0.31500
N2228       N  0.62235316  0.54603973  0.07725144     0.15000
C2229       C  0.62805914  0.51289185  0.08614554    -0.31500
H2230       H  0.64197142  0.50502264  0.10911970     0.16900
C2231       C  0.70255584  0.51768971  0.49165122    -0.30500
N2232       N  0.72727238  0.99957945  0.00912773     0.13700
C2233       C  0.71137431  0.97729028  0.03171281    -0.30500
C2234       C  0.62102785  0.95778734  0.45452574    -0.30800
N2235       N  0.63204561  0.92550426  0.46044713     0.14200
H2236       H  0.62099399  0.97079883  0.42923131     0.16800
C2237       C  0.63202392  0.91825009  0.49442116    -0.30800
H2238       H  0.64330154  0.89503366  0.50529444     0.16800
H2239       H  0.72367025  0.95795088  0.04812609     0.16800
H2240       H  0.60878601  0.57311557  0.03081232     0.16900
H2241       H  0.70783409  0.53397593  0.46877233     0.16800
C2242       C  0.85884555  0.98699501  0.01658742     0.30700
C2243       C  0.84170010  0.53247325  0.46499592     0.30700
C2244       C  0.87418272  0.98110251  0.98063201    -0.05500
C2245       C  0.81954852  0.99096955  0.00807271    -0.06300
C2246       C  0.86977788  0.52260219  0.02392515    -0.06100
C2247       C  0.85895494  0.00337038  0.45348446    -0.05500
C2248       C  0.81176766  0.51242289  0.48091590    -0.06300
C2249       C  0.86149117  0.54814282  0.99784022    -0.06100
C2250       C  0.85281678  0.98683138  0.42373773    -0.31500
N2251       N  0.85454012  0.95269355  0.43016158     0.15000
C2252       C  0.86273118  0.94617247  0.46329045    -0.31500
H2253       H  0.86228798  0.92048230  0.47551232     0.16900
C2254       C  0.77780532  0.51860648  0.47915587    -0.30500
N2255       N  0.76199905  0.49960788  0.00451535     0.13700
C2256       C  0.78732015  0.98204495  0.02174926    -0.30500
C2257       C  0.85349927  0.57711560  0.01496898    -0.30800
N2258       N  0.85553560  0.57066459  0.04901185     0.14200
H2259       H  0.84228745  0.60037571  0.00413917     0.16800
C2260       C  0.86555345  0.53804883  0.05518304    -0.30800
H2261       H  0.86636855  0.52551762  0.08067781     0.16800
H2262       H  0.78234325  0.96512948  0.04425021     0.16800
H2263       H  0.84247785  0.99824451  0.40020226     0.16900
H2264       H  0.76574882  0.53769978  0.46230372     0.16800
C2265       C  0.99023942  0.99064586  0.13889961     0.30700
C2266       C  0.53503816  0.53400870  0.15478066     0.30700
C2267       C  0.97858724  0.52529803  0.13077600    -0.05500
C2268       C  0.99408864  0.99672645  0.17848774    -0.06300
C2269       C  0.02739567  0.98437783  0.12882177    -0.06100
C2270       C  0.00378172  0.55062458  0.13984168    -0.05500
C2271       C  0.51728464  0.51602612  0.18507163    -0.06300
C2272       C  0.54959179  0.00476935  0.13579349    -0.06100
C2273       C  0.98504819  0.57895861  0.14898468    -0.31500
N2274       N  0.95119534  0.57219787  0.14446675     0.15000
C2275       C  0.94724330  0.54024880  0.13318638    -0.31500
H2276       H  0.92249393  0.52714511  0.13173117     0.16900
C2277       C  0.52038142  0.51975823  0.21941028    -0.30500
N2278       N  0.00109151  0.49629589  0.23909949     0.13700
C2279       C  0.98264171  0.98332520  0.21040384    -0.30500
C2280       C  0.57895249  0.98785959  0.14570300    -0.30800
N2281       N  0.57354130  0.95381146  0.14519157     0.14200
H2282       H  0.60166984  0.99872991  0.15724385     0.16800
C2283       C  0.54150597  0.94732253  0.13434678    -0.30800
H2284       H  0.52965517  0.92175164  0.13476541     0.16800
H2285       H  0.96416456  0.96223339  0.21469607     0.16800
H2286       H  0.99506620  0.60122512  0.16174608     0.16900
H2287       H  0.53781410  0.53728422  0.23186739     0.16800
C2288       C  0.50507096  0.50742573  0.36787475     0.30700
C2289       C  0.95757055  0.95575871  0.35102209     0.30700
C2290       C  0.96967687  0.51475757  0.38126894    -0.05500
C2291       C  0.49970658  0.50100010  0.32836257    -0.06300
C2292       C  0.51243982  0.97020382  0.37917004    -0.06100
C2293       C  0.94502755  0.48864557  0.37382751    -0.05500
C2294       C  0.97617390  0.97401895  0.32110703    -0.06300
C2295       C  0.48845685  0.94379560  0.37002831    -0.06100
C2296       C  0.91587938  0.50585269  0.36416799    -0.31500
N2297       N  0.92172432  0.53991425  0.36447642     0.15000
C2298       C  0.95393860  0.54606185  0.37479780    -0.31500
H2299       H  0.96600908  0.57153603  0.37413446     0.16900
C2300       C  0.97382203  0.97127352  0.28651421    -0.30500
N2301       N  0.99562396  0.99499540  0.27162251     0.13700
C2302       C  0.51110869  0.51259715  0.29574254    -0.30500
C2303       C  0.50803881  0.91614055  0.36127956    -0.30800
N2304       N  0.54139167  0.92435683  0.36527846     0.14200
H2305       H  0.49913544  0.89350252  0.34840891     0.16800
C2306       C  0.54437020  0.95628921  0.37671999    -0.30800
H2307       H  0.56875348  0.97012392  0.37769658     0.16800
H2308       H  0.53058331  0.53254016  0.29038449     0.16800
H2309       H  0.89283949  0.49505078  0.35316831     0.16900
H2310       H  0.95703376  0.95376539  0.27325517     0.16800
O2311       O  0.88460523  0.81050145  0.33102810    -0.84600
O2312       O  0.90412196  0.87170857  0.28986155    -0.81700
C2313       C  0.87762674  0.88214761  0.27385320     0.98800
O2314       O  0.85131537  0.88951930  0.29039292    -0.81700
O2315       O  0.80701563  0.89845930  0.34432778    -0.84400
C2316       C  0.79210423  0.87047996  0.35553539     1.03400
O2317       O  0.80875861  0.84621319  0.36936704    -0.77100
O2318       O  0.86348610  0.80629272  0.38404336    -0.77300
C2319       C  0.87020992  0.79269063  0.35579442     1.03300
O2320       O  0.92547464  0.83645472  0.38602977    -0.84600
O2321       O  0.93751640  0.89624965  0.35124784    -0.81700
C2322       C  0.93168352  0.92686029  0.34134497     0.98900
O2323       O  0.90475186  0.93272973  0.32357551    -0.81700
O2324       O  0.86226869  0.93653182  0.37547071    -0.84300
C2325       C  0.85038980  0.92836962  0.40459689     1.03300
O2326       O  0.83594363  0.89929571  0.41110050    -0.77100
O2327       O  0.89258276  0.86411074  0.42013332    -0.77300
C2328       C  0.92165220  0.85371103  0.41251509     1.03300
Cr2329     Cr  0.91015845  0.85470767  0.33990056     1.93700
Cr2330     Cr  0.85702616  0.91130036  0.33457869     1.93200
Cr2331     Cr  0.85172474  0.85493438  0.39328067     1.39100
O2332       O  0.87226892  0.87316690  0.35534016    -1.22400
O2333       O  0.81758928  0.68060961  0.39283121    -0.84600
O2334       O  0.77696266  0.61928077  0.41045356    -0.81700
C2335       C  0.76144054  0.60837178  0.38434514     0.98800
O2336       O  0.77830789  0.59961428  0.35861074    -0.81700
O2337       O  0.83368914  0.59658204  0.31376078    -0.84400
C2338       C  0.84583087  0.62469273  0.29954447     1.03400
O2339       O  0.86043341  0.64739195  0.31686000    -0.77100
O2340       O  0.87111754  0.68471053  0.37369955    -0.77300
C2341       C  0.84278607  0.69861980  0.37992809     1.03300
O2342       O  0.87079121  0.65280487  0.43555237    -0.84600
O2343       O  0.83817422  0.59201927  0.44386376    -0.81100
C2344       C  0.83140239  0.56107342  0.43764323     0.98900
O2345       O  0.81509163  0.55491139  0.41013122    -0.81700
O2346       O  0.86611846  0.55508138  0.36776217    -0.84300
C2347       C  0.89570775  0.56411167  0.35851823     1.03300
O2348       O  0.90221304  0.59385838  0.34548890    -0.77100
O2349       O  0.90655981  0.62564192  0.40416168    -0.77300
C2350       C  0.89787554  0.63600255  0.43291938     1.03300
Cr2351     Cr  0.82633713  0.63500088  0.41762200     1.93700
Cr2352     Cr  0.82437947  0.57993124  0.36329173     1.93200
Cr2353     Cr  0.88190861  0.63676457  0.36149805     1.39100
O2354       O  0.84331186  0.61787717  0.37978262    -1.22400
O2355       O  0.56343815  0.65346613  0.38104406    -0.84600
O2356       O  0.55653043  0.59657012  0.34397215    -0.81700
C2357       C  0.58588470  0.59593243  0.33013402     0.98800
O2358       O  0.61132118  0.58572382  0.34750305    -0.81700
O2359       O  0.65439530  0.57596149  0.40289720    -0.84400
C2360       C  0.66537942  0.60536858  0.41129836     1.03400
O2361       O  0.64527676  0.62622677  0.42407386    -0.77100
O2362       O  0.58681012  0.66155179  0.43155917    -0.77300
C2363       C  0.57693692  0.67306723  0.40221799     1.03300
O2364       O  0.52295719  0.62448121  0.43615936    -0.84600
O2365       O  0.52150117  0.55994681  0.39890599    -0.81700
C2366       C  0.53142830  0.53517266  0.38099516     0.98900
O2367       O  0.56348482  0.53303815  0.37463843    -0.81700
O2368       O  0.60596461  0.52867359  0.43675179    -0.84300
C2369       C  0.61946623  0.53819935  0.46481155     1.03300
O2370       O  0.62171817  0.57038530  0.47015477    -0.77100
O2371       O  0.55783854  0.60754070  0.47699383    -0.77300
C2372       C  0.52977345  0.62160301  0.46810641     1.03300
Cr2373     Cr  0.54440014  0.60689205  0.39237700     1.93700
Cr2374     Cr  0.60644663  0.55859219  0.39237499     1.93200
Cr2375     Cr  0.60108808  0.61395803  0.44765711     1.39100
O2376       O  0.58369054  0.59267324  0.41143035    -1.22400
O2377       O  0.60650501  0.82084799  0.32086942    -0.84600
O2378       O  0.58443158  0.78323520  0.38279458    -0.81700
C2379       C  0.61007471  0.76675582  0.39388049     0.98800
O2380       O  0.63712790  0.78270416  0.40159581    -0.81700
O2381       O  0.68418500  0.83612278  0.40879542    -0.84400
C2382       C  0.69928126  0.84814700  0.38144004     1.03400
O2383       O  0.68312134  0.86354396  0.35766742    -0.77100
O2384       O  0.62946786  0.87354767  0.31506496    -0.77300
C2385       C  0.62210669  0.84464131  0.30255414     1.03300
O2386       O  0.56651597  0.87674882  0.34176838    -0.84600
O2387       O  0.55394278  0.84587018  0.40459515    -0.81700
C2388       C  0.55962907  0.83700781  0.43573742     0.98900
O2389       O  0.58620604  0.81941500  0.44282101    -0.81700
O2390       O  0.63066525  0.86980919  0.44553450    -0.84300
C2391       C  0.63910289  0.90007403  0.43650887     1.03300
O2392       O  0.65278448  0.90744098  0.40743746    -0.77100
O2393       O  0.59852095  0.91246921  0.36919064    -0.77300
C2394       C  0.56993842  0.90410432  0.35757659     1.03300
Cr2395     Cr  0.58073020  0.83222097  0.36374363     1.93700
Cr2396     Cr  0.63395220  0.82820714  0.42139102     1.93200
Cr2397     Cr  0.63953792  0.88616874  0.36346779     1.39100
O2398       O  0.61893059  0.84827920  0.38247250    -1.22400
O2399       O  0.66411343  0.89347029  0.19274378    -0.84600
O2400       O  0.71539887  0.88712005  0.14082836    -0.81700
C2401       C  0.72777010  0.87731415  0.11277405     0.98800
O2402       O  0.70808727  0.87052346  0.08826053    -0.81700
O2403       O  0.66881600  0.81159902  0.11120013    -0.84400
C2404       C  0.64522920  0.79424580  0.12761029     1.03400
O2405       O  0.61734980  0.80822783  0.13563003    -0.77100
O2406       O  0.63254083  0.84525612  0.19181183    -0.77300
C2407       C  0.64958200  0.86707356  0.20821405     1.03300
O2408       O  0.62931700  0.93779556  0.14289568    -0.84600
O2409       O  0.67572553  0.93530877  0.09510254    -0.81700
C2410       C  0.65623224  0.93123854  0.06918661     0.98900
O2411       O  0.64539780  0.90112745  0.06336936    -0.81700
O2412       O  0.61226434  0.83946548  0.07462203    -0.84300
C2413       C  0.58658079  0.85779062  0.07838074     1.03300
O2414       O  0.58044234  0.86872601  0.10753885    -0.77100
O2415       O  0.59194229  0.90016546  0.16534216    -0.77300
C2416       C  0.59936265  0.92957151  0.15210752     1.03300
Cr2417     Cr  0.66986897  0.91010785  0.14238210     1.93700
Cr2418     Cr  0.65831372  0.85696871  0.08736725     1.93200
Cr2419     Cr  0.60863071  0.85655444  0.14833696     1.39100
O2420       O  0.64650702  0.87394807  0.12710988    -1.22400
O2421       O  0.89674066  0.83708734  0.08434282    -0.84600
O2422       O  0.84101862  0.87788182  0.09413125    -0.81700
C2423       C  0.82455445  0.90178397  0.10730114     0.98800
O2424       O  0.83890320  0.93068424  0.11096705    -0.81700
O2425       O  0.88323428  0.91816666  0.16486578    -0.84400
C2426       C  0.90878639  0.90666745  0.18143378     1.03400
O2427       O  0.93729820  0.90414412  0.16650702    -0.77100
O2428       O  0.92527353  0.84526596  0.13210254    -0.77300
C2429       C  0.90883273  0.82569070  0.11274072     1.03300
O2430       O  0.92752416  0.88618632  0.03488742    -0.84600
O2431       O  0.86676754  0.92835354  0.04225634    -0.81700
C2432       C  0.87160827  0.96062311  0.04571298     0.98900
O2433       O  0.88795725  0.97063255  0.07224080    -0.81700
O2434       O  0.93215831  0.96665772  0.13343182    -0.84300
C2435       C  0.96368433  0.96293496  0.12656894     1.03300
O2436       O  0.97220858  0.93678757  0.10981999    -0.77100
O2437       O  0.96436493  0.87137410  0.07493399    -0.77300
C2438       C  0.95643752  0.87334308  0.04336269     1.03300
Cr2439     Cr  0.88521135  0.88477008  0.06673562     1.93700
Cr2440     Cr  0.88775053  0.94344265  0.11846502     1.93200
Cr2441     Cr  0.94620921  0.89110777  0.11846517     1.39100
O2442       O  0.90680976  0.90683154  0.10041430    -1.22400
O2443       O  0.68086753  0.60473795  0.17799314    -0.84600
O2444       O  0.62354878  0.58059246  0.21720411    -0.81700
C2445       C  0.61478756  0.60478490  0.23567327     0.98800
O2446       O  0.60370736  0.63255002  0.22209961    -0.81700
O2447       O  0.59581842  0.68482639  0.16976078    -0.84400
C2448       C  0.62256801  0.70045823  0.15683984     1.03400
O2449       O  0.64540319  0.68435247  0.14164909    -0.77100
O2450       O  0.68321698  0.62946167  0.12561880    -0.77300
C2451       C  0.69769873  0.62075856  0.15377957     1.03300
O2452       O  0.65349997  0.57008258  0.12123651    -0.84600
O2453       O  0.59421344  0.55473245  0.15498765    -0.81700
C2454       C  0.56385752  0.56017592  0.16446564     0.98900
O2455       O  0.55835596  0.58600748  0.18284272    -0.81700
O2456       O  0.55445789  0.63449849  0.13494821    -0.84300
C2457       C  0.56212714  0.64647321  0.10548131     1.03300
O2458       O  0.59081237  0.66102278  0.09919638    -0.77100
O2459       O  0.62322679  0.60393150  0.08851184    -0.77300
C2460       C  0.63399200  0.57448842  0.09590215     1.03300
Cr2461     Cr  0.63675019  0.58034363  0.16747724     1.93700
Cr2462     Cr  0.58123844  0.63401674  0.17630726     1.93200
Cr2463     Cr  0.63480757  0.64292659  0.11670788     1.39100
O2464       O  0.61804407  0.61994697  0.15438498    -1.22400
O2465       O  0.80504963  0.65900379  0.10183662    -0.84600
O2466       O  0.85118062  0.71419010  0.10785591    -0.81700
C2467       C  0.87784368  0.73059786  0.11628839     0.98800
O2468       O  0.90399980  0.71446860  0.12657812    -0.81700
O2469       O  0.88486360  0.67604333  0.18831507    -0.84400
C2470       C  0.87039522  0.65153262  0.20643679     1.03400
O2471       O  0.86338132  0.62275648  0.19360174    -0.77100
O2472       O  0.80740049  0.63147133  0.15292213    -0.77300
C2473       C  0.79049254  0.64619903  0.12916419     1.03300
O2474       O  0.85823812  0.62659461  0.06379681    -0.84600
O2475       O  0.90133679  0.67821889  0.06580104    -0.81700
C2476       C  0.92763244  0.66028866  0.07249220     0.98900
O2477       O  0.93399951  0.65191645  0.10341582    -0.81700
O2478       O  0.92611537  0.62119291  0.16605617    -0.84300
C2479       C  0.92272707  0.59350960  0.15074265     1.03300
O2480       O  0.89407899  0.58530103  0.13878436    -0.77100
O2481       O  0.83738204  0.58896433  0.10253079    -0.77300
C2482       C  0.84989104  0.59632778  0.07302602     1.03300
Cr2483     Cr  0.85463696  0.66837876  0.08815231     1.93700
Cr2484     Cr  0.90922703  0.66537287  0.14478313     1.93200
Cr2485     Cr  0.85191814  0.61023567  0.14586172     1.39100
O2486       O  0.87086256  0.64875332  0.12683766    -1.22400
C2487       C  0.75270539  0.64618091  0.13189745    -0.15700
C2488       C  0.73508847  0.62725608  0.15667599    -0.30900
H2489       H  0.73899012  0.65902168  0.11081044     0.13300
H2490       H  0.74855264  0.61435746  0.17788416     0.13900
C2491       C  0.90509587  0.78846767  0.12277683    -0.15700
C2492       C  0.87927101  0.76867131  0.11096097    -0.30900
H2493       H  0.92420752  0.77705252  0.13981911     0.13300
H2494       H  0.85925964  0.78061811  0.09542021     0.13900
C2495       C  0.64854689  0.75673592  0.13562087    -0.15700
C2496       C  0.62540970  0.73862922  0.15617630    -0.30900
H2497       H  0.66872196  0.74346782  0.12248393     0.13300
H2498       H  0.60534279  0.75210923  0.16925224     0.13900
C2499       C  0.76543042  0.87488032  0.10663132    -0.15700
C2500       C  0.78803925  0.89782063  0.11885259    -0.30900
H2501       H  0.77405944  0.85729886  0.08757015     0.13300
H2502       H  0.77850048  0.91728977  0.13550705     0.13900
C2503       C  0.62964429  0.84046343  0.26528406    -0.15700
C2504       C  0.64977245  0.86378004  0.24658958    -0.30900
H2505       H  0.61616818  0.81986314  0.25250725     0.13300
H2506       H  0.66335988  0.88405914  0.25975914     0.13900
C2507       C  0.58913314  0.60681478  0.29321968    -0.15700
C2508       C  0.61590036  0.59886920  0.27347342    -0.30900
H2509       H  0.56738430  0.61963462  0.28124185     0.13300
H2510       H  0.63634701  0.58335200  0.28448312     0.13900
C2511       C  0.60768280  0.72908495  0.40103942    -0.15700
C2512       C  0.58002096  0.71014801  0.39258770    -0.30900
H2513       H  0.62866367  0.71675956  0.41484199     0.13300
H2514       H  0.55979332  0.72175059  0.37709642     0.13900
C2515       C  0.86370423  0.65443698  0.24375266    -0.15700
C2516       C  0.84527267  0.62934062  0.26163588    -0.30900
H2517       H  0.87638900  0.67520828  0.25699944     0.13300
H2518       H  0.83254894  0.60888374  0.24794526     0.13900
C2519       C  0.72349482  0.60261336  0.38457896    -0.15700
C2520       C  0.70250483  0.61514822  0.40839360    -0.30900
H2521       H  0.71264475  0.58621033  0.36526233     0.13300
H2522       H  0.71282488  0.63315437  0.42651786     0.13900
C2523       C  0.90716351  0.89646895  0.21861461    -0.15700
C2524       C  0.87782197  0.88932360  0.23604405    -0.30900
H2525       H  0.93148842  0.89402908  0.23203357     0.13300
H2526       H  0.85337819  0.89217638  0.22296989     0.13900
C2527       C  0.75443995  0.86725631  0.35482506    -0.15700
C2528       C  0.73684472  0.84610450  0.37780505    -0.30900
H2529       H  0.74088896  0.88535792  0.33787409     0.13300
H2530       H  0.75047138  0.82971493  0.39637658     0.13900
C2531       C  0.86387777  0.75493393  0.35357550    -0.15700
C2532       C  0.84129007  0.73678958  0.37479588    -0.30900
H2533       H  0.88009559  0.74134823  0.33608888     0.13300
H2534       H  0.82363460  0.75034648  0.39086015     0.13900
C2535       C  0.95259328  0.65060958  0.54354720     0.30700
C2536       C  0.50266363  0.63581476  0.99462838     0.30700
C2537       C  0.93929081  0.62864533  0.01511587    -0.05500
C2538       C  0.96786515  0.68079327  0.52280182    -0.06300
C2539       C  0.48591159  0.63192022  0.55728674    -0.06100
C2540       C  0.96472172  0.61917892  0.99089629    -0.05500
C2541       C  0.49489021  0.67511737  0.99840112    -0.06300
C2542       C  0.51159078  0.62441876  0.53273798    -0.06100
C2543       C  0.94919883  0.62032182  0.95920684    -0.31500
N2544       N  0.91733597  0.63211972  0.96196937     0.15000
C2545       C  0.91064867  0.63708936  0.99547222    -0.31500
H2546       H  0.88864306  0.65083177  0.00427439     0.16900
C2547       C  0.50694343  0.70768415  0.98709972    -0.30500
N2548       N  0.98754889  0.73102439  0.50390119     0.13700
C2549       C  0.96456557  0.71520967  0.52552959    -0.30500
C2550       C  0.54285770  0.63142841  0.54821548    -0.30800
N2551       N  0.53706738  0.64188425  0.58020914     0.14200
H2552       H  0.56797986  0.63175802  0.53605694     0.16800
C2553       C  0.50325859  0.64177854  0.58612945    -0.30800
H2554       H  0.49252568  0.65227238  0.60901065     0.16800
H2555       H  0.94801726  0.72769523  0.54336542     0.16800
H2556       H  0.96212429  0.61896481  0.93458774     0.16900
H2557       H  0.52734444  0.71300245  0.96837949     0.16800
C2558       C  0.53335256  0.84907139  0.96604443     0.30700
C2559       C  0.98552879  0.86348710  0.51629025     0.30700
C2560       C  0.00185198  0.86305954  0.95483714    -0.05500
C2561       C  0.51642264  0.81840606  0.98494357    -0.06300
C2562       C  0.54713882  0.86733709  0.49408549    -0.06100
C2563       C  0.97906632  0.87764276  0.47946051    -0.05500
C2564       C  0.99070626  0.82389230  0.51042187    -0.06300
C2565       C  0.02266117  0.87572294  0.52299211    -0.06100
C2566       C  0.94475175  0.86316463  0.96326230    -0.31500
N2567       N  0.95105867  0.85224424  0.93160231     0.15000
C2568       C  0.98497207  0.85236976  0.92606309    -0.31500
H2569       H  0.99613222  0.84164368  0.90349896     0.16900
C2570       C  0.97702829  0.79143396  0.52018632    -0.30500
N2571       N  0.99358768  0.76701924  0.50197455     0.13700
C2572       C  0.51918054  0.78395615  0.98156327    -0.30500
C2573       C  0.53664188  0.87761595  0.54974585    -0.30800
N2574       N  0.56761993  0.86378151  0.54796256     0.14200
H2575       H  0.52396400  0.88185069  0.57395442     0.16800
C2576       C  0.57478241  0.85785876  0.51467673    -0.30800
H2577       H  0.59628770  0.84292975  0.50662171     0.16800
H2578       H  0.53638293  0.77154164  0.96431332     0.16800
H2579       H  0.91946678  0.86303839  0.97505569     0.16900
H2580       H  0.95629073  0.78628353  0.53855191     0.16800
C2581       C  0.64187487  0.95868100  0.54371899     0.30700
C2582       C  0.63079882  0.51160912  0.99548747     0.30700
C2583       C  0.62262428  0.49308670  0.55634971    -0.05500
C2584       C  0.67203118  0.97768699  0.52710442    -0.06300
C2585       C  0.62898556  0.94940432  0.01064521    -0.06100
C2586       C  0.61379504  0.51695762  0.52883356    -0.05500
C2587       C  0.66975716  0.50927131  0.00599548    -0.06300
C2588       C  0.62169126  0.97532839  0.98478809    -0.06100
C2589       C  0.61224588  0.54881879  0.54304403    -0.31500
N2590       N  0.62276475  0.54604409  0.57575598     0.15000
C2591       C  0.62828581  0.51281235  0.58447265    -0.31500
H2592       H  0.64178838  0.50470577  0.60762113     0.16900
C2593       C  0.70201525  0.51718141  0.99187060    -0.30500
N2594       N  0.72180365  0.99566940  0.50763528     0.13700
C2595       C  0.70614850  0.97323867  0.53024113    -0.30500
C2596       C  0.62809564  0.96110882  0.95337951    -0.30800
N2597       N  0.63839464  0.92873509  0.95930189     0.14200
H2598       H  0.62831995  0.97412658  0.92807744     0.16800
C2599       C  0.63868870  0.92128586  0.99323677    -0.30800
H2600       H  0.64926365  0.89768306  0.00407611     0.16800
H2601       H  0.71857532  0.95429032  0.54696976     0.16800
H2602       H  0.61009869  0.57348638  0.52919836     0.16900
H2603       H  0.70692918  0.53269031  0.96837697     0.16800
C2604       C  0.85303717  0.98317734  0.51607985     0.30700
C2605       C  0.84160952  0.53540472  0.96653840     0.30700
C2606       C  0.86621380  0.97714464  0.47938770    -0.05500
C2607       C  0.81397566  0.98909526  0.50867433    -0.06300
C2608       C  0.86748053  0.52148579  0.52379359    -0.06100
C2609       C  0.86471873  0.00529366  0.95345104    -0.05500
C2610       C  0.81176654  0.51628036  0.98365341    -0.06300
C2611       C  0.85964159  0.54629925  0.49701090    -0.06100
C2612       C  0.85768998  0.98556261  0.92547819    -0.31500
N2613       N  0.86323496  0.95201132  0.93391097     0.15000
C2614       C  0.87442947  0.94918324  0.96649047    -0.31500
H2615       H  0.87666028  0.92461897  0.98061058     0.16900
C2616       C  0.77761355  0.52099953  0.98093350    -0.30500
N2617       N  0.76220192  0.49937257  0.50446300     0.13700
C2618       C  0.78170779  0.97888327  0.52096281    -0.30500
C2619       C  0.85049619  0.57536070  0.51344858    -0.30800
N2620       N  0.85151539  0.56922400  0.54756840     0.14200
H2621       H  0.83977471  0.59864767  0.50211788     0.16800
C2622       C  0.86172709  0.53698169  0.55458098    -0.30800
H2623       H  0.86165304  0.52482866  0.58027554     0.16800
H2624       H  0.77647911  0.96020225  0.54201439     0.16800
H2625       H  0.84421390  0.99438344  0.90252114     0.16900
H2626       H  0.76520147  0.53998009  0.96421883     0.16800
C2627       C  0.98346669  0.98805100  0.64084791     0.30700
C2628       C  0.53485955  0.53459259  0.65544759     0.30700
C2629       C  0.97906947  0.52526331  0.62527682    -0.05500
C2630       C  0.98855482  0.99498011  0.68014160    -0.06300
C2631       C  0.02022828  0.98072607  0.62978868    -0.06100
C2632       C  0.00292752  0.55175146  0.63475623    -0.05500
C2633       C  0.51887004  0.51534943  0.68590797    -0.06300
C2634       C  0.54735647  0.00514330  0.63710715    -0.06100
C2635       C  0.98297816  0.57963074  0.64232437    -0.31500
N2636       N  0.94958350  0.57164040  0.63703613     0.15000
C2637       C  0.94717988  0.53968685  0.62531211    -0.31500
H2638       H  0.92298022  0.52573197  0.62288763     0.16900
C2639       C  0.52323440  0.51841347  0.72016545    -0.30500
N2640       N  0.99489130  0.50283053  0.73724422     0.13700
C2641       C  0.97719869  0.98339543  0.71275555    -0.30500
C2642       C  0.57633611  0.98727680  0.64660359    -0.30800
N2643       N  0.57001235  0.95333452  0.64589929     0.14200
H2644       H  0.59945590  0.99750858  0.65794541     0.16800
C2645       C  0.53766322  0.94795510  0.63541667    -0.30800
H2646       H  0.52513715  0.92270089  0.63589842     0.16800
H2647       H  0.95811519  0.96308934  0.71826104     0.16800
H2648       H  0.99169979  0.60189790  0.65592096     0.16900
H2649       H  0.54084117  0.53596911  0.73235973     0.16800
C2650       C  0.50529391  0.51038966  0.86850935     0.30700
C2651       C  0.95677707  0.96038165  0.85485409     0.30700
C2652       C  0.96949335  0.51528929  0.88215405    -0.05500
C2653       C  0.50041651  0.50346829  0.82905081    -0.06300
C2654       C  0.50958474  0.97294210  0.88320721    -0.06100
C2655       C  0.94432436  0.48948587  0.87456002    -0.05500
C2656       C  0.97407575  0.97810660  0.82379273    -0.06300
C2657       C  0.48488365  0.94726240  0.87354262    -0.06100
C2658       C  0.91475259  0.50693832  0.86719237    -0.31500
N2659       N  0.92062353  0.54082993  0.86870336     0.15000
C2660       C  0.95312875  0.54667360  0.87824185    -0.31500
H2661       H  0.96462753  0.57228534  0.87862849     0.16900
C2662       C  0.96963111  0.97508793  0.78943109    -0.30500
N2663       N  0.99168461  0.99757680  0.77308683     0.13700
C2664       C  0.51309491  0.51343140  0.79643837    -0.30500
C2665       C  0.50415030  0.91928964  0.86444633    -0.30800
N2666       N  0.53786145  0.92638462  0.86921951     0.14200
H2667       H  0.49461142  0.89752608  0.85057309     0.16800
C2668       C  0.54114456  0.95794178  0.88177609    -0.30800
H2669       H  0.56565618  0.97133699  0.88417977     0.16800
H2670       H  0.53336934  0.53250136  0.79092030     0.16800
H2671       H  0.89147706  0.49679030  0.85612041     0.16900
H2672       H  0.95161314  0.95790240  0.77729361     0.16800
O2673       O  0.89175241  0.81020226  0.83951696    -0.84600
O2674       O  0.88710886  0.86349638  0.78766757    -0.81700
C2675       C  0.87940272  0.89256968  0.77432497     0.98800
O2676       O  0.87006670  0.91620158  0.79317278    -0.81700
O2677       O  0.80978925  0.89263590  0.83055168    -0.84400
C2678       C  0.79222165  0.87676235  0.85450740     1.03400
O2679       O  0.80611920  0.86778081  0.88293004    -0.77100
O2680       O  0.84343126  0.81121312  0.86990696    -0.77300
C2681       C  0.86506294  0.79496273  0.85306971     1.03300
O2682       O  0.93510061  0.85805444  0.87555687    -0.84600
O2683       O  0.93303153  0.90780396  0.82817929    -0.81700
C2684       C  0.92781409  0.93388190  0.84627593     0.98900
O2685       O  0.89763630  0.93927580  0.85638866    -0.81700
O2686       O  0.83581825  0.92760655  0.88755199    -0.84300
C2687       C  0.85391957  0.92341919  0.91390289     1.03300
O2688       O  0.86547507  0.89411385  0.92112445    -0.77100
O2689       O  0.89725716  0.83540621  0.91228690    -0.77300
C2690       C  0.92678840  0.84754431  0.90534576     1.03300
Cr2691     Cr  0.90845144  0.86043637  0.83400238     1.93700
Cr2692     Cr  0.85451130  0.91583617  0.84229192     1.93200
Cr2693     Cr  0.85410761  0.85389910  0.89352521     1.39100
O2694       O  0.87183731  0.87568186  0.85570226    -1.22400
O2695       O  0.81542292  0.68188404  0.89190159    -0.84600
O2696       O  0.77663729  0.62013521  0.91182584    -0.81700
C2697       C  0.76098585  0.60939106  0.88573911     0.98800
O2698       O  0.77767705  0.60102604  0.85975666    -0.81700
O2699       O  0.83279596  0.59499810  0.81500289    -0.84400
C2700       C  0.84493415  0.62238787  0.79947562     1.03400
O2701       O  0.85913429  0.64609692  0.81580144    -0.77100
O2702       O  0.86830285  0.68659791  0.87085995    -0.77300
C2703       C  0.83975130  0.70002184  0.87744950     1.03300
O2704       O  0.86955946  0.65699646  0.93505654    -0.84600
O2705       O  0.83867755  0.59512416  0.94523251    -0.81100
C2706       C  0.83104321  0.56418336  0.93964059     0.98900
O2707       O  0.81372035  0.55801060  0.91276586    -0.81700
O2708       O  0.86506410  0.55628155  0.87073222    -0.84300
C2709       C  0.89485908  0.56517372  0.86202604     1.03300
O2710       O  0.90164641  0.59455012  0.84808631    -0.77100
O2711       O  0.90552639  0.62990315  0.90400660    -0.77300
C2712       C  0.89687200  0.64064738  0.93259535     1.03300
Cr2713     Cr  0.82557307  0.63730232  0.91799985     1.93700
Cr2714     Cr  0.82340229  0.58097353  0.86516704     1.93200
Cr2715     Cr  0.88052748  0.63824357  0.86112328     1.39100
O2716       O  0.84237484  0.61948643  0.88036704    -1.22400
O2717       O  0.56579873  0.65540462  0.88123660    -0.84600
O2718       O  0.55847350  0.59848782  0.84427485    -0.81700
C2719       C  0.58796378  0.59712677  0.83088725     0.98800
O2720       O  0.61290740  0.58635396  0.84869079    -0.81700
O2721       O  0.65463213  0.57619480  0.90515198    -0.84400
C2722       C  0.66581116  0.60538873  0.91391411     1.03400
O2723       O  0.64591689  0.62653358  0.92647144    -0.77100
O2724       O  0.58799134  0.66303494  0.93236193    -0.77300
C2725       C  0.57884306  0.67483263  0.90282401     1.03300
O2726       O  0.52340805  0.62736772  0.93554255    -0.84600
O2727       O  0.52196677  0.56291820  0.89884014    -0.81700
C2728       C  0.53176277  0.53779157  0.88142648     0.98900
O2729       O  0.56378260  0.53492773  0.87550899    -0.81700
O2730       O  0.60541620  0.52936739  0.93822751    -0.84300
C2731       C  0.61872432  0.53870058  0.96646896     1.03300
O2732       O  0.62077165  0.57093130  0.97189374    -0.77100
O2733       O  0.55713995  0.60891488  0.97674729    -0.77300
C2734       C  0.52955423  0.62371767  0.96757112     1.03300
Cr2735     Cr  0.54568355  0.60924830  0.89235681     1.93700
Cr2736     Cr  0.60682294  0.55952555  0.89375828     1.93200
Cr2737     Cr  0.60115583  0.61499193  0.94885009     1.39100
O2738       O  0.58431161  0.59415151  0.91221807    -1.22400
O2739       O  0.60301918  0.82263409  0.82230584    -0.84600
O2740       O  0.58423164  0.78545408  0.88520454    -0.81700
C2741       C  0.61024888  0.76934788  0.89602110     0.98800
O2742       O  0.63727097  0.78564064  0.90318521    -0.81700
O2743       O  0.68399950  0.84040114  0.90690188    -0.84400
C2744       C  0.69852068  0.85236146  0.87910508     1.03400
O2745       O  0.68143929  0.86642034  0.85505956    -0.77100
O2746       O  0.62478752  0.87564644  0.81506796    -0.77300
C2747       C  0.61786500  0.84631598  0.80330901     1.03300
O2748       O  0.56285726  0.87868008  0.84468064    -0.84600
O2749       O  0.55447451  0.84832944  0.90746760    -0.81700
C2750       C  0.56036993  0.83980597  0.93848692     0.98900
O2751       O  0.58736557  0.82280755  0.94544276    -0.81700
O2752       O  0.63165138  0.87361745  0.94471930    -0.84300
C2753       C  0.64191294  0.90313262  0.93521097     1.03300
O2754       O  0.65378478  0.90991934  0.90535350    -0.77100
O2755       O  0.59582504  0.91473630  0.87061602    -0.77300
C2756       C  0.56656156  0.90615031  0.86039388     1.03300
Cr2757     Cr  0.57912304  0.83430711  0.86599878     1.93700
Cr2758     Cr  0.63431204  0.83167680  0.92170968     1.93200
Cr2759     Cr  0.63741278  0.88866248  0.86266799     1.39100
O2760       O  0.61793083  0.85079947  0.88292807    -1.22400
O2761       O  0.66146088  0.89251425  0.69349404    -0.84600
O2762       O  0.71287460  0.88764464  0.64140901    -0.81700
C2763       C  0.72533730  0.87964823  0.61275121     0.98800
O2764       O  0.70560119  0.87210913  0.58864962    -0.81700
O2765       O  0.66924096  0.81120521  0.61323641    -0.84400
C2766       C  0.64592588  0.79337420  0.62964675     1.03400
O2767       O  0.61748122  0.80656471  0.63728449    -0.77100
O2768       O  0.62840242  0.84518746  0.69304994    -0.77300
C2769       C  0.64611975  0.86670811  0.70914245     1.03300
O2770       O  0.62559204  0.93638265  0.64437255    -0.84600
O2771       O  0.67129910  0.93418841  0.59572566    -0.81700
C2772       C  0.65191982  0.92916817  0.56988604     0.98900
O2773       O  0.64208172  0.89872576  0.56423807    -0.81700
O2774       O  0.61235217  0.83515342  0.57559362    -0.84300
C2775       C  0.58655099  0.85338733  0.57781054     1.03300
O2776       O  0.57930913  0.86500169  0.60640859    -0.77100
O2777       O  0.58687957  0.89821586  0.66337895    -0.77300
C2778       C  0.59524534  0.92818061  0.65218441     1.03300
Cr2779     Cr  0.66657740  0.90928764  0.64323333     1.93700
Cr2780     Cr  0.65693835  0.85557466  0.58853746     1.93200
Cr2781     Cr  0.60609225  0.85471223  0.64840901     1.39100
O2782       O  0.64406985  0.87265083  0.62798047    -1.22400
O2783       O  0.87795216  0.83820272  0.59182731    -0.84600
O2784       O  0.83356758  0.89211711  0.58295909    -0.81700
C2785       C  0.82316450  0.90065100  0.61242501     0.98800
O2786       O  0.84343070  0.91485629  0.63262128    -0.81700
O2787       O  0.90185894  0.92345399  0.66768498    -0.84400
C2788       C  0.90842668  0.89310799  0.67924615     1.03400
O2789       O  0.92138888  0.87173564  0.65985609    -0.77100
O2790       O  0.93288650  0.83645420  0.60205982    -0.77300
C2791       C  0.90397486  0.82147635  0.60107724     1.03300
O2792       O  0.92604671  0.86847679  0.54001676    -0.84600
O2793       O  0.88051078  0.92791690  0.53514536    -0.81700
C2794       C  0.86629823  0.95555820  0.54406070     0.98900
O2795       O  0.86509016  0.96155605  0.57613212    -0.81700
O2796       O  0.93022770  0.96794211  0.61212302    -0.84300
C2797       C  0.95718774  0.96012150  0.62878387     1.03300
O2798       O  0.96327509  0.92840310  0.63438187    -0.77100
O2799       O  0.96751079  0.89299153  0.56907470    -0.77300
C2800       C  0.95821298  0.87565205  0.54336037     1.03300
Cr2801     Cr  0.88169572  0.88349982  0.56500535     1.93700
Cr2802     Cr  0.88694393  0.93916815  0.61977743     1.93200
Cr2803     Cr  0.94308164  0.88463967  0.61475885     1.39100
O2804       O  0.90414982  0.90310699  0.59912563    -1.22400
O2805       O  0.68030350  0.60354099  0.67785895    -0.84600
O2806       O  0.62327956  0.57932263  0.71698314    -0.81700
C2807       C  0.61551237  0.60362639  0.73577518     0.98800
O2808       O  0.60497057  0.63174349  0.72244316    -0.81700
O2809       O  0.59638666  0.68427316  0.67071132    -0.84400
C2810       C  0.62322423  0.69970194  0.65781822     1.03400
O2811       O  0.64558979  0.68359588  0.64197386    -0.77100
O2812       O  0.68249700  0.62842255  0.62552024    -0.77300
C2813       C  0.69698341  0.61961535  0.65366844     1.03300
O2814       O  0.65294879  0.56956412  0.62064033    -0.84600
O2815       O  0.59379944  0.55480180  0.65438796    -0.81700
C2816       C  0.56382917  0.56027745  0.66476876     0.98900
O2817       O  0.55887706  0.58572060  0.68378473    -0.81700
O2818       O  0.55397782  0.63462877  0.63597240    -0.84300
C2819       C  0.56147252  0.64668532  0.60644635     1.03300
O2820       O  0.59024416  0.66102537  0.60000465    -0.77100
O2821       O  0.62223595  0.60359577  0.58848465    -0.77300
C2822       C  0.63357158  0.57423346  0.59522093     1.03300
Cr2823     Cr  0.63633029  0.57960307  0.66710633     1.93700
Cr2824     Cr  0.58156470  0.63363719  0.67706493     1.93200
Cr2825     Cr  0.63429759  0.64242859  0.61685988     1.39100
O2826       O  0.61783031  0.61941231  0.65450978    -1.22400
O2827       O  0.80315448  0.65526633  0.60027662    -0.84600
O2828       O  0.84701441  0.71052344  0.60779043    -0.81700
C2829       C  0.87308905  0.72752768  0.61630499     0.98800
O2830       O  0.89997638  0.71213882  0.62597030    -0.81700
O2831       O  0.88203095  0.67232541  0.68703956    -0.84400
C2832       C  0.86859976  0.64732640  0.70521728     1.03400
O2833       O  0.86250744  0.61844954  0.69217785    -0.77100
O2834       O  0.80621139  0.63004812  0.65242904    -0.77300
C2835       C  0.78905137  0.64395092  0.62836452     1.03300
O2836       O  0.85709880  0.62472403  0.56225310    -0.84600
O2837       O  0.89926095  0.67713508  0.56454710    -0.81700
C2838       C  0.92622075  0.66007954  0.57122779     0.98900
O2839       O  0.93234617  0.65122848  0.60203237    -0.81700
O2840       O  0.92354554  0.61799589  0.66272078    -0.84300
C2841       C  0.92045928  0.59112570  0.64586073     1.03300
O2842       O  0.89147396  0.58230741  0.63504493    -0.77100
O2843       O  0.83329013  0.58829425  0.60044659    -0.77300
C2844       C  0.84665576  0.59507268  0.57120040     1.03300
Cr2845     Cr  0.85241212  0.66587625  0.58681735     1.93700
Cr2846     Cr  0.90670260  0.66294237  0.64333860     1.93200
Cr2847     Cr  0.84973199  0.60761031  0.64403843     1.39100
O2848       O  0.86877010  0.64609643  0.62519244    -1.22400
C2849       C  0.75154848  0.64451212  0.63150176    -0.15700
C2850       C  0.73419459  0.62593862  0.65653634    -0.30900
H2851       H  0.73778052  0.65725553  0.61038595     0.13300
H2852       H  0.74771679  0.61304032  0.67771169     0.13900
C2853       C  0.90219948  0.78413737  0.60992275    -0.15700
C2854       C  0.87277809  0.76549340  0.61185096    -0.30900
H2855       H  0.92647877  0.77136264  0.61417686     0.13300
H2856       H  0.84843743  0.77789702  0.60692755     0.13900
C2857       C  0.64992115  0.75601582  0.63782861    -0.15700
C2858       C  0.62659937  0.73773720  0.65798979    -0.30900
H2859       H  0.67022097  0.74293581  0.62468722     0.13300
H2860       H  0.60648050  0.75110024  0.67112274     0.13900
C2861       C  0.76277591  0.88025072  0.60485043    -0.15700
C2862       C  0.78666379  0.89579870  0.62381900    -0.30900
H2863       H  0.77054784  0.86994367  0.58050752     0.13300
H2864       H  0.77902737  0.90670278  0.64791488     0.13900
C2865       C  0.62516968  0.84141528  0.76621118    -0.15700
C2866       C  0.64627865  0.86371415  0.74745970    -0.30900
H2867       H  0.61095598  0.82115270  0.75364453     0.13300
H2868       H  0.66067147  0.88353459  0.76050744     0.13900
C2869       C  0.59178524  0.60804061  0.79398492    -0.15700
C2870       C  0.61699802  0.59745849  0.77362651    -0.30900
H2871       H  0.57113968  0.62291966  0.78240604     0.13300
H2872       H  0.63600305  0.57990708  0.78422546     0.13900
C2873       C  0.60843258  0.73162182  0.90329953    -0.15700
C2874       C  0.58175753  0.71204584  0.89346051    -0.30900
H2875       H  0.62908052  0.71976436  0.91801643     0.13300
H2876       H  0.56211161  0.72329872  0.87694944     0.13900
C2877       C  0.86213450  0.65032714  0.74261117    -0.15700
C2878       C  0.84476665  0.62509195  0.76133890    -0.30900
H2879       H  0.87375868  0.67208865  0.75522605     0.13300
H2880       H  0.83300642  0.60360987  0.74836487     0.13900
C2881       C  0.72322552  0.60341709  0.88638385    -0.15700
C2882       C  0.70287705  0.61466818  0.91135000    -0.30900
H2883       H  0.71197923  0.58814954  0.86636393     0.13300
H2884       H  0.71355820  0.63158333  0.93030248     0.13900
C2885       C  0.90205091  0.88234844  0.71591977    -0.15700
C2886       C  0.88309139  0.90097284  0.73687183    -0.30900
H2887       H  0.91323580  0.85849467  0.72587613     0.13300
H2888       H  0.87219404  0.92495198  0.72683205     0.13900
C2889       C  0.75458270  0.87064180  0.85127493    -0.15700
C2890       C  0.73646875  0.85217734  0.87621223    -0.30900
H2891       H  0.74138734  0.88346211  0.82985375     0.13300
H2892       H  0.74998857  0.83949210  0.89751658     0.13900
C2893       C  0.86092929  0.75677929  0.85184699    -0.15700
C2894       C  0.83668407  0.73796890  0.87051032    -0.30900
H2895       H  0.88109282  0.74348113  0.83871437     0.13300
H2896       H  0.81617671  0.75091912  0.88345397     0.13900
loop_ 
_geom_bond_atom_site_label_1 
_geom_bond_atom_site_label_2 
_geom_bond_distance 
_geom_bond_site_symmetry_2 
_ccdc_geom_bond_type 
C1            C4   1.499       .  S
C1          C304   1.545       .  S
C1          C365   1.535       .  S
C1         C1453   1.538       .  S
C2            C7   1.575   1_455  S
C2          C200   1.579       .  S
C2         C1454   1.545   1_455  S
C2          C370   1.528       .  S
C3          C363   1.530       .  S
C3           C11   1.388       .  A
C3            C6   1.426       .  A
C4           C15   1.351       .  A
C4         C1817   1.404   1_554  A
C5         C1449   1.544       .  S
C5           C19   1.379   1_655  A
C5            C8   1.420   1_655  A
C6         C1450   1.535       .  S
C6            C9   1.370       .  A
C7           C13   1.387   1_655  A
C7         C1814   1.411       .  A
C8          C364   1.525   1_554  S
C8           C16   1.388       .  A
C9           N10   1.336       .  A
C9           H22   1.080       .  S
N10          C11   1.346       .  A
N10         C178   1.420       .  S
C11          H12   1.082       .  S
C13        N1824   1.375   1_455  A
C13          H23   1.081       .  S
N14          C15   1.341       .  A
N14        C1823   1.374   1_554  A
N14          N37   1.404       .  S
C15          H21   1.081       .  S
C16          N17   1.337       .  A
C16          H18   1.080       .  S
N17          C19   1.337       .  A
N17         C285   1.415       .  S
C19          H20   1.080   1_455  S
C24          C27   1.500       .  S
C24         C216   1.549       .  S
C24        C1474   1.539       .  S
C24         C390   1.532       .  S
C25          C29   1.527   1_554  S
C25          C31   1.549       .  S
C25          C30   1.566       .  S
C25         C266   1.569       .  S
C26        C1472   1.535       .  S
C26          C34   1.378       .  A
C26         C391   1.423       .  A
C27          C38   1.353       .  A
C27        C1840   1.408   1_455  A
C28         C386   1.523       .  S
C28          C42   1.372   1_556  A
C28        C1479   1.426   1_556  A
C29         C388   1.422       .  A
C29         C394   1.386       .  A
C30          C36   1.381       .  A
C30        C1837   1.404   1_554  A
C31        C1476   1.428   1_554  A
C31        C1487   1.393       .  A
C32         C391   1.393       .  A
C32          N33   1.345       .  A
C32          H45   1.081       .  S
N33          C34   1.334       .  A
N33         C156   1.420       .  S
C34          H35   1.080       .  S
C36          N37   1.374       .  A
C36          H46   1.081       .  S
N37        C1848   1.341   1_554  A
C38        N1847   1.339       .  A
C38          H44   1.081       .  S
C39        C1479   1.386       .  A
C39          N40   1.341       .  A
C39          H41   1.082       .  S
N40          C42   1.337       .  A
N40         C241   1.412       .  S
C42          H43   1.079       .  S
C47          C50   1.497       .  S
C47         C238   1.546       .  S
C47         C773   1.528       .  S
C47         C413   1.538       .  S
C48          C53   1.572       .  S
C48         C197   1.567       .  S
C48         C414   1.542       .  S
C48         C778   1.524   1_545  S
C49         C771   1.534       .  S
C49          C57   1.392   1_565  A
C49          C52   1.429   1_565  A
C50          C61   1.352       .  A
C50        C1139   1.404       .  A
C51         C409   1.542       .  S
C51          C65   1.378       .  A
C51          C54   1.417       .  A
C52         C410   1.540   1_554  S
C52          C55   1.370       .  A
C53          C59   1.384       .  A
C53        C1136   1.404   1_545  A
C54         C772   1.525       .  S
C54          C62   1.386       .  A
C55          N56   1.339       .  A
C55          H68   1.081       .  S
N56          C57   1.348       .  A
N56         C288   1.425       .  S
C57          H58   1.082       .  S
C59        N1146   1.376   1_545  A
C59          H69   1.079       .  S
N60          C61   1.337       .  A
N60        C1145   1.377   1_554  A
N60         N807   1.406       .  S
C61          H67   1.082       .  S
C62          N63   1.342       .  A
C62          H64   1.082       .  S
N63          C65   1.337       .  A
N63         C219   1.414       .  S
C65          H66   1.080       .  S
C70          C72   1.551   1_554  S
C70          C73   1.575       .  S
C70         C260   1.575       .  S
C70         C798   1.527       .  S
C71          C76   1.496       .  S
C71         C172   1.546       .  S
C71         C799   1.524       .  S
C71         C439   1.531       .  S
C72         C442   1.382       .  A
C72         C437   1.428       .  A
C73          C84   1.387       .  A
C73        C1162   1.404   1_554  A
C74         C794   1.521   1_545  S
C74          C88   1.381       .  A
C74          C77   1.421   1_554  A
C75         C795   1.532       .  S
C75          C78   1.387       .  A
C75         C434   1.430       .  A
C76          C82   1.348       .  A
C76        C1159   1.405   1_545  A
C77         C433   1.544       .  S
C77          C85   1.380   1_556  A
C78          N79   1.347       .  A
C78          H91   1.082       .  S
N79          C80   1.333       .  A
N79         C153   1.419       .  S
C80         C434   1.371       .  A
C80          H81   1.079       .  S
C82         N445   1.336   1_545  A
C82          H92   1.082       .  S
N83         C444   1.338   1_554  A
N83         C808   1.376   1_545  A
N83         N784   1.405   1_545  S
C84         N807   1.378       .  A
C84          H90   1.079       .  S
C85          N86   1.333       .  A
C85          H87   1.079       .  S
N86          C88   1.340       .  A
N86         C310   1.410       .  S
C88          H89   1.082       .  S
C93          C97   1.524       .  S
C93          C96   1.580       .  S
C93         C263   1.574       .  S
C93         C819   1.535       .  S
C94          C99   1.496       .  S
C94         C282   1.543       .  S
C94        C1546   1.535       .  S
C94         C824   1.545       .  S
C95         C817   1.547   1_545  S
C95         C103   1.383       .  A
C95          C98   1.429       .  A
C96         C107   1.388       .  A
C96        C2271   1.403       .  A
C97        C1559   1.371       .  A
C97        C1548   1.421       .  A
C98        C1542   1.537       .  S
C98         C101   1.388       .  A
C99         C105   1.352       .  A
C99        C2268   1.401   1_445  A
C100        C818   1.538       .  S
C100        C108   1.384       .  A
C100       C1545   1.424       .  A
C101        N102   1.350       .  A
C101        H114   1.082       .  S
N102        C103   1.340       .  A
N102        C307   1.431       .  S
C103        H104   1.080       .  S
C105       N1554   1.341   1_455  A
C105        H115   1.081       .  S
N106       C1553   1.339   1_565  A
N106        C831   1.375       .  A
N106        N853   1.404       .  S
C107        N830   1.378       .  A
C107        H113   1.081       .  S
C108        N109   1.340       .  A
C108        H110   1.081       .  S
N109        C111   1.337       .  A
N109        C244   1.418       .  S
C111       C1545   1.378       .  A
C111        H112   1.079       .  S
C116        C119   1.572       .  S
C116        C194   1.575       .  S
C116       C1566   1.529   1_455  S
C116        C844   1.535   1_545  S
C117        C122   1.497       .  S
C117        C150   1.550       .  S
C117        C845   1.539       .  S
C117       C1571   1.538       .  S
C118       C1564   1.537       .  S
C118        C126   1.384       .  A
C118        C121   1.431   1_545  A
C119        C130   1.383       .  A
C119       C2294   1.405   1_445  A
C120        C840   1.537       .  S
C120        C134   1.373       .  A
C120        C123   1.431   1_455  A
C121        C841   1.532       .  S
C121        C124   1.374   1_565  A
C122        C128   1.352       .  A
C122       C2291   1.406       .  A
C123       C1565   1.536       .  S
C123        C131   1.386   1_655  A
C124        N125   1.339       .  A
C124        H137   1.079   1_545  S
N125        C126   1.339       .  A
N125        C175   1.414       .  S
C126        H127   1.080       .  S
C128        N129   1.339       .  A
C128        H138   1.081       .  S
N129       C2302   1.378       .  A
N129        N830   1.408       .  S
C130       N2301   1.375   1_445  A
C130        H136   1.081       .  S
C131        N132   1.349       .  A
C131        H133   1.082   1_455  S
N132        C134   1.340       .  A
N132        C222   1.425       .  S
C134        H135   1.081       .  S
O139       Cr157   2.035       .  S
O139        C147   1.278       .  A
O140       Cr157   2.002       .  S
O140        C141   1.264       .  A
C141        O142   1.255       .  A
C141        C352   1.479       .  S
O142       Cr158   1.981       .  S
O143       Cr158   1.990       .  S
O143        C144   1.270       .  A
C144        O145   1.269       .  A
C144        C355   1.476       .  S
O145       Cr159   1.993       .  S
O146       Cr159   1.967       .  S
O146        C147   1.260       .  A
C147        C359   1.487       .  S
O148       Cr157   1.938       .  S
O148        C156   1.247       .  A
O149       Cr157   2.044       .  S
O149        C150   1.277       .  A
C150        O151   1.259       .  A
O151       Cr158   1.971       .  S
O152       Cr158   1.971       .  S
O152        C153   1.249       .  A
C153        O154   1.249       .  A
O154       Cr159   1.957       .  S
O155       Cr159   1.978       .  S
O155        C156   1.256       .  A
Cr157       O160   1.779       .  S
Cr158       O160   1.772       .  S
Cr159       O160   1.780       .  S
O161       Cr179   2.005       .  S
O161        C169   1.274       .  A
O162       Cr179   2.019       .  S
O162        C163   1.267       .  A
C163        O164   1.256       .  A
C163        C347   1.481       .  S
O164       Cr180   1.969       .  S
O165       Cr180   2.024       .  S
O165        C166   1.273       .  A
C166        O167   1.258       .  A
C166        C344   1.472       .  S
O167       Cr181   1.952       .  S
O168       Cr181   2.000       .  S
O168        C169   1.268       .  A
C169        C360   1.489       .  S
O170       Cr179   1.985       .  S
O170        C178   1.256       .  A
O171       Cr179   1.970       .  S
O171        C172   1.254       .  A
C172        O173   1.275       .  A
O173       Cr180   2.034       .  S
O174       Cr180   1.919       .  S
O174        C175   1.240       .  A
C175        O176   1.259       .  A
O176       Cr181   1.994       .  S
O177       Cr181   1.944       .  S
O177        C178   1.250       .  A
Cr179       O182   1.772       .  S
Cr180       O182   1.777       .  S
Cr181       O182   1.772       .  S
O183       Cr201   1.971       .  S
O183        C191   1.255       .  A
O184       Cr201   2.033       .  S
O184        C185   1.271       .  A
C185        O186   1.252       .  A
C185        C335   1.474       .  S
O186       Cr202   1.956       .  S
O187       Cr202   2.022       .  S
O187        C188   1.268       .  A
C188        O189   1.254       .  A
C188        C348   1.476       .  S
O189       Cr203   1.967       .  S
O190       Cr203   2.016       .  S
O190        C191   1.267       .  A
C191        C340   1.477       .  S
O192       Cr201   2.070       .  S
O192        C200   1.279       .  A
O193       Cr201   2.018       .  S
O193        C194   1.274       .  A
C194        O195   1.276       .  A
O195       Cr202   2.058       .  S
O196       Cr202   2.006       .  S
O196        C197   1.273       .  A
C197        O198   1.275       .  A
O198       Cr203   2.056       .  S
O199       Cr203   2.013       .  S
O199        C200   1.274       .  A
Cr201       O204   1.791       .  S
Cr202       O204   1.791       .  S
Cr203       O204   1.791       .  S
O205       Cr223   2.009       .  S
O205        C213   1.274       .  A
O206       Cr223   2.014       .  S
O206        C207   1.265       .  A
C207        O208   1.257       .  A
C207        C339   1.482       .  S
O208       Cr224   1.973       .  S
O209       Cr224   2.023       .  S
O209        C210   1.275       .  A
C210        O211   1.260       .  A
C210        C356   1.472       .  S
O211       Cr225   1.957       .  S
O212       Cr225   1.995       .  S
O212        C213   1.266       .  A
C213        C331   1.486       .  S
O214       Cr223   1.984       .  S
O214        C222   1.258       .  A
O215       Cr223   1.975       .  S
O215        C216   1.258       .  A
C216        O217   1.273       .  A
O217       Cr224   2.036       .  S
O218       Cr224   1.926       .  S
O218        C219   1.244       .  A
C219        O220   1.256       .  A
O220       Cr225   1.987       .  S
O221       Cr225   1.960       .  S
O221        C222   1.253       .  A
Cr223       O226   1.770       .  S
Cr224       O226   1.776       .  S
Cr225       O226   1.780       .  S
O227       Cr245   2.006       .  S
O227        C235   1.274       .  A
O228       Cr245   2.015       .  S
O228        C229   1.266       .  A
C229        O230   1.259       .  A
C229        C327   1.481       .  S
O230       Cr246   1.974       .  S
O231       Cr246   2.026       .  S
O231        C232   1.273       .  A
C232        O233   1.257       .  A
C232        C323   1.469       .  S
O233       Cr247   1.944       .  S
O234       Cr247   2.002       .  S
O234        C235   1.268       .  A
C235        C332   1.486       .  S
O236       Cr245   1.977       .  S
O236        C244   1.256       .  A
O237       Cr245   1.986       .  S
O237        C238   1.259       .  A
C238        O239   1.274       .  A
O239       Cr246   2.029       .  S
O240       Cr246   1.920       .  S
O240        C241   1.241       .  A
C241        O242   1.258       .  A
O242       Cr247   1.989       .  S
O243       Cr247   1.953       .  S
O243        C244   1.248       .  A
Cr245       O248   1.768       .  S
Cr246       O248   1.776       .  S
Cr247       O248   1.779       .  S
O249       Cr267   1.977       .  S
O249        C257   1.256       .  A
O250       Cr267   1.993       .  S
O250        C251   1.261       .  A
C251        O252   1.263       .  A
C251        C328   1.484       .  S
O252       Cr268   1.995       .  S
O253       Cr268   2.017       .  S
O253        C254   1.264       .  A
C254        O255   1.251       .  A
C254        C351   1.482       .  S
O255       Cr269   1.972       .  S
O256       Cr269   2.017       .  S
O256        C257   1.268       .  A
C257        C319   1.478       .  S
O258       Cr267   2.040       .  S
O258        C266   1.285       .  A
O259       Cr267   2.026       .  S
O259        C260   1.267       .  A
C260        O261   1.280       .  A
O261       Cr268   2.044       .  S
O262       Cr268   2.044       .  S
O262        C263   1.273       .  A
C263        O264   1.282       .  A
O264       Cr269   2.024       .  S
O265       Cr269   2.025       .  S
O265        C266   1.263       .  A
Cr267       O270   1.787       .  S
Cr268       O270   1.797       .  S
Cr269       O270   1.785       .  S
O271       Cr289   2.002       .  S
O271        C279   1.274       .  A
O272       Cr289   2.028       .  S
O272        C273   1.267       .  A
C273        O274   1.250       .  A
C273        C336   1.481       .  S
O274       Cr290   1.959       .  S
O275       Cr290   2.018       .  S
O275        C276   1.272       .  A
C276        O277   1.257       .  A
C276        C324   1.469       .  S
O277       Cr291   1.949       .  S
O278       Cr291   2.009       .  S
O278        C279   1.271       .  A
C279        C316   1.491       .  S
O280       Cr289   1.999       .  S
O280        C288   1.259       .  A
O281       Cr289   1.955       .  S
O281        C282   1.253       .  A
C282        O283   1.277       .  A
O283       Cr290   2.045       .  S
O284       Cr290   1.907       .  S
O284        C285   1.239       .  A
C285        O286   1.261       .  A
O286       Cr291   1.999       .  S
O287       Cr291   1.939       .  S
O287        C288   1.249       .  A
Cr289       O292   1.771       .  S
Cr290       O292   1.778       .  S
Cr291       O292   1.775       .  S
O293       Cr311   2.031       .  S
O293        C301   1.277       .  A
O294       Cr311   1.999       .  S
O294        C295   1.264       .  A
C295        O296   1.254       .  A
C295        C320   1.476       .  S
O296       Cr312   1.981       .  S
O297       Cr312   1.987       .  S
O297        C298   1.269       .  A
C298        O299   1.268       .  A
C298        C343   1.472       .  S
O299       Cr313   1.994       .  S
O300       Cr313   1.977       .  S
O300        C301   1.263       .  A
C301        C315   1.489       .  S
O302       Cr311   1.935       .  S
O302        C310   1.246       .  A
O303       Cr311   2.040       .  S
O303        C304   1.276       .  A
C304        O305   1.260       .  A
O305       Cr312   1.969       .  S
O306       Cr312   1.975       .  S
O306        C307   1.252       .  A
C307        O308   1.254       .  A
O308       Cr313   1.987       .  S
O309       Cr313   1.965       .  S
O309        C310   1.253       .  A
Cr311       O314   1.778       .  S
Cr312       O314   1.769       .  S
Cr313       O314   1.781       .  S
C315        C316   1.358       .  D
C315        H317   1.087       .  S
C316        H318   1.086       .  S
C319        C320   1.335       .  D
C319        H321   1.088       .  S
C320        H322   1.086       .  S
C323        C324   1.352       .  D
C323        H325   1.087       .  S
C324        H326   1.087       .  S
C327        C328   1.350       .  D
C327        H329   1.087       .  S
C328        H330   1.086       .  S
C331        C332   1.360       .  D
C331        H333   1.086       .  S
C332        H334   1.087       .  S
C335        C336   1.339       .  D
C335        H337   1.086       .  S
C336        H338   1.087       .  S
C339        C340   1.343       .  D
C339        H341   1.087       .  S
C340        H342   1.087       .  S
C343        C344   1.352       .  D
C343        H345   1.086       .  S
C344        H346   1.087       .  S
C347        C348   1.342       .  D
C347        H349   1.087       .  S
C348        H350   1.087       .  S
C351        C352   1.336       .  D
C351        H353   1.088       .  S
C352        H354   1.086       .  S
C355        C356   1.352       .  D
C355        H357   1.086       .  S
C356        H358   1.087       .  S
C359        C360   1.360       .  D
C359        H361   1.086       .  S
C360        H362   1.086       .  S
C363       C1815   1.546       .  S
C363        C366   1.497       .  S
C363        C666   1.542       .  S
C364       C1816   1.536   1_455  S
C364        C369   1.576   1_455  S
C364        C562   1.565       .  S
C365        C373   1.393   1_554  A
C365        C368   1.429   1_554  A
C366        C377   1.352       .  A
C366       C1455   1.404       .  A
C367       C1811   1.539       .  S
C367        C381   1.377   1_655  A
C367        C370   1.416   1_655  A
C368       C1812   1.547       .  S
C368        C371   1.378       .  A
C369       C1452   1.403   1_556  A
C369        C375   1.386   1_655  A
C370        C378   1.387       .  A
C371        N372   1.343       .  A
C371        H384   1.080       .  S
N372        C373   1.349       .  A
N372        C540   1.433       .  S
C373        H374   1.082   1_556  S
C375       N1462   1.376   1_456  A
C375        H385   1.081       .  S
N376       C1461   1.375       .  A
N376        C377   1.340       .  A
N376        N399   1.406       .  S
C377        H383   1.081       .  S
C378        N379   1.344       .  A
C378        H380   1.082       .  S
N379        C381   1.336       .  A
N379        C647   1.416       .  S
C381        H382   1.080   1_455  S
C386       C1836   1.536       .  S
C386        C389   1.500       .  S
C386        C578   1.540       .  S
C387        C391   1.540       .  S
C387        C393   1.535       .  S
C387        C392   1.569       .  S
C387        C628   1.572       .  S
C388       C1834   1.533       .  S
C388        C396   1.375       .  A
C389        C400   1.352       .  A
C389       C1478   1.404   1_456  A
C390        C404   1.390       .  A
C390       C1841   1.430       .  A
C392       C1475   1.405       .  A
C392        C398   1.382       .  A
C393       C1838   1.428       .  A
C393       C1849   1.383       .  A
C394        N395   1.338       .  A
C394        H407   1.082       .  S
N395        C396   1.331       .  A
N395        C518   1.408       .  S
C396        H397   1.079       .  S
C398        N399   1.375       .  A
C398        H408   1.081       .  S
N399       C1486   1.341       .  A
C400       N1485   1.339   1_456  A
C400        H406   1.082       .  S
C401       C1841   1.381       .  A
C401        N402   1.343       .  A
C401        H403   1.080       .  S
N402        C404   1.347       .  A
N402        C603   1.432       .  S
C404        H405   1.082       .  S
C409       C1135   1.532       .  S
C409        C412   1.495       .  S
C409        C600   1.555       .  S
C410       C1140   1.526   1_545  S
C410        C415   1.574   1_556  S
C410        C559   1.578       .  S
C411       C1133   1.534       .  S
C411        C419   1.387   1_565  A
C411        C414   1.432   1_565  A
C412        C423   1.351       .  A
C412        C777   1.411       .  A
C413        C427   1.377       .  A
C413        C416   1.428   1_554  A
C414        C417   1.375       .  A
C415        C774   1.407   1_545  A
C415        C421   1.383   1_554  A
C416       C1134   1.530       .  S
C416        C424   1.383       .  A
C417        N418   1.338       .  A
C417        H430   1.080       .  S
N418        C419   1.348       .  A
N418        C650   1.425       .  S
C419        H420   1.082       .  S
C421        N784   1.376   1_546  A
C421        H431   1.080       .  S
N422        C783   1.376       .  A
N422        C423   1.334       .  A
N422       N1169   1.404       .  S
C423        H429   1.082       .  S
C424        N425   1.340       .  A
C424        H426   1.081       .  S
N425        C427   1.345   1_556  A
N425        C581   1.419       .  S
C427        H428   1.079       .  S
C432        C434   1.540       .  S
C432       C1160   1.529       .  S
C432        C435   1.576       .  S
C432        C622   1.576       .  S
C433       C1161   1.536       .  S
C433        C438   1.492       .  S
C433        C534   1.547       .  S
C435        C446   1.387       .  A
C435        C800   1.404       .  A
C436       C1156   1.527   1_545  S
C436        C450   1.385       .  A
C436        C439   1.422       .  A
C437       C1157   1.533       .  S
C437        C440   1.387       .  A
C438        C797   1.402   1_546  A
C438        C444   1.350       .  A
C439        C447   1.370       .  A
C440        N441   1.348       .  A
C440        H453   1.082       .  S
N441        C442   1.340       .  A
N441        C515   1.429       .  S
C442        H443   1.079       .  S
C444        H454   1.081       .  S
N445       C1170   1.376       .  A
N445       N1146   1.402       .  S
C446       N1169   1.378       .  A
C446        H452   1.079       .  S
C447        N448   1.334       .  A
C447        H449   1.080       .  S
N448        C450   1.336       .  A
N448        C672   1.406       .  S
C450        H451   1.081       .  S
C455       C1181   1.529       .  S
C455        C459   1.535       .  S
C455        C458   1.577       .  S
C455        C625   1.572       .  S
C456       C1908   1.532       .  S
C456       C1186   1.536       .  S
C456        C461   1.499       .  S
C456        C644   1.542       .  S
C457       C1179   1.542   1_545  S
C457        C465   1.377       .  A
C457        C460   1.428       .  A
C458        C469   1.386       .  A
C458       C2633   1.401       .  A
C459       C1921   1.379       .  A
C459       C1910   1.423       .  A
C460       C1904   1.537       .  S
C460        C463   1.393       .  A
C461       C2630   1.403   1_445  A
C461        C467   1.352       .  A
C462       C1180   1.538       .  S
C462       C1907   1.418       .  A
C462        C470   1.374       .  A
C463        N464   1.349       .  A
C463        H476   1.082       .  S
N464        C465   1.344       .  A
N464        C669   1.433       .  S
C465        H466   1.081       .  S
C467       N1916   1.340   1_455  A
C467        H477   1.081       .  S
N468       C1915   1.337   1_565  A
N468       C1193   1.378       .  A
N468       N1215   1.405       .  S
C469       N1192   1.378       .  A
C469        H475   1.081       .  S
C470        N471   1.332       .  A
C470        H472   1.079       .  S
N471        C473   1.336       .  A
N471        C606   1.406       .  S
C473       C1907   1.385       .  A
C473        H474   1.082       .  S
C478       C1928   1.532   1_455  S
C478       C1206   1.538   1_545  S
C478        C481   1.571   1_455  S
C478        C556   1.583       .  S
C479       C1207   1.539       .  S
C479       C1933   1.538       .  S
C479        C484   1.491       .  S
C479        C512   1.542       .  S
C480       C1926   1.522       .  S
C480        C488   1.386       .  A
C480        C483   1.419   1_545  A
C481        C492   1.383   1_655  A
C481       C2656   1.406   1_545  A
C482       C1202   1.537       .  S
C482        C496   1.367       .  A
C482        C485   1.430   1_455  A
C483       C1203   1.537       .  S
C483        C486   1.373   1_565  A
C484       C2653   1.404       .  A
C484        C490   1.349       .  A
C485       C1927   1.535       .  S
C485        C493   1.389   1_655  A
C486        N487   1.333       .  A
C486        H499   1.079       .  S
N487        C488   1.335       .  A
N487        C537   1.406       .  S
C488        H489   1.082       .  S
C490        N491   1.336       .  A
C490        H500   1.081       .  S
N491       C2664   1.378       .  A
N491       N1192   1.406       .  S
C492       N2663   1.375   1_445  A
C492        H498   1.081       .  S
C493        N494   1.348       .  A
C493        H495   1.082   1_455  S
N494        C496   1.338       .  A
N494        C584   1.421       .  S
C496        H497   1.080       .  S
O501       Cr519   2.024       .  S
O501        C509   1.276       .  A
O502       Cr519   1.985       .  S
O502        C503   1.259       .  A
C503        O504   1.260       .  A
C503        C714   1.480       .  S
O504       Cr520   1.998       .  S
O505       Cr520   1.993       .  S
O505        C506   1.271       .  A
C506        O507   1.266       .  A
C506        C717   1.473       .  S
O507       Cr521   1.986       .  S
O508       Cr521   1.968       .  S
O508        C509   1.262       .  A
C509        C721   1.479       .  S
O510       Cr519   1.919       .  S
O510        C518   1.242       .  A
O511       Cr519   2.037       .  S
O511        C512   1.276       .  A
C512        O513   1.256       .  A
O513       Cr520   1.960       .  S
O514       Cr520   1.985       .  S
O514        C515   1.255       .  A
C515        O516   1.253       .  A
O516       Cr521   1.976       .  S
O517       Cr521   1.967       .  S
O517        C518   1.252       .  A
Cr519       O522   1.780       .  S
Cr520       O522   1.767       .  S
Cr521       O522   1.777       .  S
O523       Cr541   1.998       .  S
O523        C531   1.271       .  A
O524       Cr541   2.032       .  S
O524        C525   1.271       .  A
C525        O526   1.252       .  A
C525        C709   1.486       .  S
O526       Cr542   1.965       .  S
O527       Cr542   2.012       .  S
O527        C528   1.271       .  A
C528        O529   1.261       .  A
C528        C706   1.472       .  S
O529       Cr543   1.968       .  S
O530       Cr543   1.995       .  S
O530        C531   1.268       .  A
C531        C722   1.482       .  S
O532       Cr541   2.003       .  S
O532        C540   1.263       .  A
O533       Cr541   1.956       .  S
O533        C534   1.251       .  A
C534        O535   1.275       .  A
O535       Cr542   2.042       .  S
O536       Cr542   1.902       .  S
O536        C537   1.240       .  A
C537        O538   1.258       .  A
O538       Cr543   1.988       .  S
O539       Cr543   1.960       .  S
O539        C540   1.253       .  A
Cr541       O544   1.767       .  S
Cr542       O544   1.773       .  S
Cr543       O544   1.776       .  S
O545       Cr563   1.990       .  S
O545        C553   1.259       .  A
O546       Cr563   1.978       .  S
O546        C547   1.257       .  A
C547        O548   1.269       .  A
C547        C697   1.485       .  S
O548       Cr564   2.016       .  S
O549       Cr564   2.014       .  S
O549        C550   1.264       .  A
C550        O551   1.255       .  A
C550        C710   1.482       .  S
O551       Cr565   1.984       .  S
O552       Cr565   1.996       .  S
O552        C553   1.264       .  A
C553        C702   1.469       .  S
O554       Cr563   2.018       .  S
O554        C562   1.276       .  A
O555       Cr563   2.039       .  S
O555        C556   1.269       .  A
C556        O557   1.279       .  A
O557       Cr564   2.042       .  S
O558       Cr564   2.060       .  S
O558        C559   1.277       .  A
C559        O560   1.281       .  A
O560       Cr565   2.021       .  S
O561       Cr565   2.034       .  S
O561        C562   1.267       .  A
Cr563       O566   1.790       .  S
Cr564       O566   1.787       .  S
Cr565       O566   1.785       .  S
O567       Cr585   1.993       .  S
O567        C575   1.270       .  A
O568       Cr585   2.011       .  S
O568        C569   1.266       .  A
C569        O570   1.252       .  A
C569        C701   1.475       .  S
O570       Cr586   1.966       .  S
O571       Cr586   2.023       .  S
O571        C572   1.273       .  A
C572        O573   1.255       .  A
C572        C718   1.469       .  S
O573       Cr587   1.949       .  S
O574       Cr587   2.002       .  S
O574        C575   1.271       .  A
C575        C693   1.483       .  S
O576       Cr585   1.992       .  S
O576        C584   1.258       .  A
O577       Cr585   1.956       .  S
O577        C578   1.252       .  A
C578        O579   1.278       .  A
O579       Cr586   2.045       .  S
O580       Cr586   1.919       .  S
O580        C581   1.241       .  A
C581        O582   1.263       .  A
O582       Cr587   2.006       .  S
O583       Cr587   1.939       .  S
O583        C584   1.250       .  A
Cr585       O588   1.771       .  S
Cr586       O588   1.772       .  S
Cr587       O588   1.766       .  S
O589       Cr607   2.020       .  S
O589        C597   1.274       .  A
O590       Cr607   1.969       .  S
O590        C591   1.254       .  A
C591        O592   1.269       .  A
C591        C689   1.485       .  S
O592       Cr608   2.026       .  S
O593       Cr608   2.007       .  S
O593        C594   1.273       .  A
C594        O595   1.267       .  A
C594        C685   1.490       .  S
O595       Cr609   1.998       .  S
O596       Cr609   1.972       .  S
O596        C597   1.263       .  A
C597        C694   1.478       .  S
O598       Cr607   1.908       .  S
O598        C606   1.241       .  A
O599       Cr607   2.044       .  S
O599        C600   1.276       .  A
C600        O601   1.254       .  A
O601       Cr608   1.970       .  S
O602       Cr608   1.996       .  S
O602        C603   1.261       .  A
C603        O604   1.253       .  A
O604       Cr609   1.966       .  S
O605       Cr609   1.981       .  S
O605        C606   1.255       .  A
Cr607       O610   1.776       .  S
Cr608       O610   1.769       .  S
Cr609       O610   1.778       .  S
O611       Cr629   2.005       .  S
O611        C619   1.266       .  A
O612       Cr629   1.986       .  S
O612        C613   1.256       .  A
C613        O614   1.263       .  A
C613        C690   1.481       .  S
O614       Cr630   2.008       .  S
O615       Cr630   2.007       .  S
O615        C616   1.266       .  A
C616        O617   1.259       .  A
C616        C713   1.484       .  S
O617       Cr631   1.984       .  S
O618       Cr631   1.982       .  S
O618        C619   1.257       .  A
C619        C681   1.471       .  S
O620       Cr629   2.039       .  S
O620        C628   1.268       .  A
O621       Cr629   2.024       .  S
O621        C622   1.281       .  A
C622        O623   1.273       .  A
O623       Cr630   2.049       .  S
O624       Cr630   2.033       .  S
O624        C625   1.277       .  A
C625        O626   1.268       .  A
O626       Cr631   2.031       .  S
O627       Cr631   2.032       .  S
O627        C628   1.281       .  A
Cr629       O632   1.780       .  S
Cr630       O632   1.793       .  S
Cr631       O632   1.790       .  S
O633       Cr651   1.994       .  S
O633        C641   1.271       .  A
O634       Cr651   1.988       .  S
O634        C635   1.257       .  A
C635        O636   1.262       .  A
C635        C698   1.480       .  S
O636       Cr652   1.995       .  S
O637       Cr652   2.033       .  S
O637        C638   1.278       .  A
C638        O639   1.262       .  A
C638        C686   1.487       .  S
O639       Cr653   1.971       .  S
O640       Cr653   1.996       .  S
O640        C641   1.270       .  A
C641        C678   1.481       .  S
O642       Cr651   1.973       .  S
O642        C650   1.251       .  A
O643       Cr651   1.966       .  S
O643        C644   1.257       .  A
C644        O645   1.276       .  A
O645       Cr652   2.043       .  S
O646       Cr652   1.934       .  S
O646        C647   1.247       .  A
C647        O648   1.254       .  A
O648       Cr653   1.977       .  S
O649       Cr653   1.971       .  S
O649        C650   1.251       .  A
Cr651       O654   1.771       .  S
Cr652       O654   1.778       .  S
Cr653       O654   1.782       .  S
O655       Cr673   2.015       .  S
O655        C663   1.272       .  A
O656       Cr673   1.963       .  S
O656        C657   1.250       .  A
C657        O658   1.267       .  A
C657        C682   1.476       .  S
O658       Cr674   2.018       .  S
O659       Cr674   1.988       .  S
O659        C660   1.268       .  A
C660        O661   1.270       .  A
C660        C705   1.477       .  S
O661       Cr675   1.998       .  S
O662       Cr675   1.968       .  S
O662        C663   1.260       .  A
C663        C677   1.474       .  S
O664       Cr673   1.901       .  S
O664        C672   1.241       .  A
O665       Cr673   2.050       .  S
O665        C666   1.278       .  A
C666        O667   1.251       .  A
O667       Cr674   1.951       .  S
O668       Cr674   2.002       .  S
O668        C669   1.262       .  A
C669        O670   1.251       .  A
O670       Cr675   1.960       .  S
O671       Cr675   1.989       .  S
O671        C672   1.259       .  A
Cr673       O676   1.770       .  S
Cr674       O676   1.769       .  S
Cr675       O676   1.774       .  S
C677        C678   1.353       .  D
C677        H679   1.087       .  S
C678        H680   1.086       .  S
C681        C682   1.338       .  D
C681        H683   1.088       .  S
C682        H684   1.087       .  S
C685        C686   1.359       .  D
C685        H687   1.086       .  S
C686        H688   1.087       .  S
C689        C690   1.342       .  D
C689        H691   1.087       .  S
C690        H692   1.087       .  S
C693        C694   1.352       .  D
C693        H695   1.086       .  S
C694        H696   1.087       .  S
C697        C698   1.342       .  D
C697        H699   1.087       .  S
C698        H700   1.087       .  S
C701        C702   1.339       .  D
C701        H703   1.087       .  S
C702        H704   1.087       .  S
C705        C706   1.349       .  D
C705        H707   1.086       .  S
C706        H708   1.087       .  S
C709        C710   1.340       .  D
C709        H711   1.087       .  S
C710        H712   1.087       .  S
C713        C714   1.345       .  D
C713        H715   1.087       .  S
C714        H716   1.087       .  S
C717        C718   1.354       .  D
C717        H719   1.086       .  S
C718        H720   1.087       .  S
C721        C722   1.355       .  D
C721        H723   1.087       .  S
C722        H724   1.086       .  S
C725       C1089   1.532       .  S
C725       C2177   1.536       .  S
C725        C728   1.502       .  S
C725       C1028   1.543       .  S
C726       C2178   1.545   1_455  S
C726       C1094   1.524       .  S
C726        C731   1.577   1_455  S
C726        C924   1.575       .  S
C727       C1087   1.529       .  S
C727        C735   1.388       .  A
C727        C730   1.428       .  A
C728        C739   1.354       .  A
C728       C2541   1.405   1_554  A
C729       C2173   1.542       .  S
C729        C743   1.380   1_655  A
C729        C732   1.420   1_655  A
C730       C2174   1.547       .  S
C730        C733   1.377       .  A
C731       C2538   1.404       .  A
C731        C737   1.387   1_655  A
C732       C1088   1.534   1_554  S
C732        C740   1.395       .  A
C733        N734   1.340       .  A
C733        H746   1.079       .  S
N734        C735   1.346       .  A
N734        C902   1.427       .  S
C735        H736   1.082       .  S
C737       N2548   1.378   1_455  A
C737        H747   1.081       .  S
N738       C2547   1.376   1_554  A
N738        C739   1.341       .  A
N738        N761   1.407       .  S
C739        H745   1.081       .  S
C740        N741   1.345       .  A
C740        H742   1.081       .  S
N741        C743   1.334       .  A
N741       C1009   1.421       .  S
C743        H744   1.079   1_455  S
C748       C2198   1.544       .  S
C748       C1114   1.540       .  S
C748        C751   1.494       .  S
C748        C940   1.550       .  S
C749        C753   1.519   1_554  S
C749        C755   1.547       .  S
C749        C754   1.573       .  S
C749        C990   1.574       .  S
C750       C2196   1.542       .  S
C750        C758   1.388       .  A
C750       C1115   1.425       .  A
C751        C762   1.352       .  A
C751       C2564   1.405   1_455  A
C752       C1110   1.531       .  S
C752        C766   1.384   1_556  A
C752       C2203   1.430   1_556  A
C753       C1112   1.425       .  A
C753       C1118   1.379       .  A
C754       C2561   1.404   1_554  A
C754        C760   1.385       .  A
C755       C2200   1.431   1_554  A
C755       C2211   1.381       .  A
C756       C1115   1.367       .  A
C756        N757   1.336       .  A
C756        H769   1.080       .  S
N757        C758   1.341       .  A
N757        C880   1.414       .  S
C758        H759   1.081       .  S
C760        N761   1.375       .  A
C760        H770   1.081       .  S
N761       C2572   1.341   1_554  A
C762       N2571   1.338   1_455  A
C762        H768   1.081       .  S
C763       C2203   1.380       .  A
C763        N764   1.336       .  A
C763        H765   1.078       .  S
N764        C766   1.348       .  A
N764        C965   1.425       .  S
C766        H767   1.082       .  S
C771       C1137   1.536       .  S
C771        C774   1.498       .  S
C771        C962   1.553       .  S
C772       C1138   1.549       .  S
C772        C777   1.575       .  S
C772        C921   1.578       .  S
C773        C781   1.379       .  A
C773        C776   1.423       .  A
C774        C785   1.352       .  A
C775       C1133   1.543       .  S
C775        C789   1.378       .  A
C775        C778   1.419       .  A
C776       C1134   1.534   1_554  S
C776        C779   1.376       .  A
C777        C783   1.385       .  A
C778        C786   1.386       .  A
C779        N780   1.332       .  A
C779        H792   1.080       .  S
N780        C781   1.337       .  A
N780       C1012   1.409       .  S
C781        H782   1.081       .  S
C783        H793   1.079       .  S
N784        C785   1.339       .  A
C785        H791   1.082       .  S
C786        N787   1.339       .  A
C786        H788   1.082       .  S
N787        C789   1.337       .  A
N787        C943   1.412       .  S
C789        H790   1.080       .  S
C794        C796   1.546   1_554  S
C794        C797   1.573       .  S
C794        C984   1.564       .  S
C795       C1163   1.540       .  S
C795        C800   1.491       .  S
C795        C896   1.551       .  S
C796       C1166   1.381       .  A
C796       C1161   1.427   1_565  A
C797        C808   1.386       .  A
C798        C812   1.384       .  A
C798        C801   1.420   1_554  A
C799       C1158   1.430   1_545  A
C799        C802   1.370   1_545  A
C800        C806   1.348       .  A
C801       C1157   1.544       .  S
C801        C809   1.380   1_556  A
C802        N803   1.339       .  A
C802        H815   1.079       .  S
N803        C804   1.340       .  A
N803        C877   1.413       .  S
C804       C1158   1.387       .  A
C804        H805   1.081       .  S
C806       N1169   1.335       .  A
C806        H816   1.082       .  S
N807       C1168   1.336   1_554  A
C808        H814   1.080       .  S
C809        N810   1.336       .  A
C809        H811   1.079       .  S
N810        C812   1.344       .  A
N810       C1034   1.416       .  S
C812        H813   1.082       .  S
C817        C821   1.522       .  S
C817        C820   1.572       .  S
C817        C987   1.564       .  S
C818       C2270   1.544       .  S
C818        C823   1.496       .  S
C818       C1006   1.553       .  S
C819        C827   1.375       .  A
C819        C822   1.431       .  A
C820        C831   1.383       .  A
C820       C1547   1.402   1_565  A
C821       C2283   1.383       .  A
C821       C2272   1.421   1_565  A
C822       C2266   1.548       .  S
C822        C825   1.390       .  A
C823       C1544   1.404   1_455  A
C823        C829   1.353       .  A
C824       C2269   1.422   1_545  A
C824        C832   1.382   1_545  A
C825        N826   1.353       .  A
C825        H838   1.082       .  S
N826        C827   1.339       .  A
N826       C1031   1.429       .  S
C827        H828   1.081       .  S
C829       N2278   1.339       .  A
C829        H839   1.081       .  S
N830       C2277   1.338       .  A
C831        H837   1.081       .  S
C832        N833   1.334       .  A
C832        H834   1.079   1_565  S
N833        C835   1.340       .  A
N833        C968   1.413       .  S
C835       C2269   1.383       .  A
C835        H836   1.082       .  S
C840       C2290   1.524   1_455  S
C840        C843   1.576       .  S
C840        C918   1.571       .  S
C841       C2295   1.535       .  S
C841        C846   1.497       .  S
C841        C874   1.555       .  S
C842       C2288   1.523       .  S
C842        C850   1.385       .  A
C842        C845   1.419       .  A
C843        C854   1.386       .  A
C843       C1570   1.405   1_455  A
C844        C858   1.373       .  A
C844        C847   1.426   1_455  A
C845        C848   1.377       .  A
C846       C1567   1.406   1_565  A
C846        C852   1.350       .  A
C847       C2289   1.534       .  S
C847        C855   1.382   1_655  A
C848        N849   1.334       .  A
C848        H861   1.079       .  S
N849        C850   1.337       .  A
N849        C899   1.409       .  S
C850        H851   1.082       .  S
C852        N853   1.339       .  A
C852        H862   1.081       .  S
N853       C1578   1.376   1_565  A
C854       N1577   1.377   1_455  A
C854        H860   1.081       .  S
C855        N856   1.340       .  A
C855        H857   1.082       .  S
N856        C858   1.338       .  A
N856        C946   1.415       .  S
C858        H859   1.080       .  S
O863       Cr881   2.009       .  S
O863        C871   1.274       .  A
O864       Cr881   2.033       .  S
O864        C865   1.272       .  A
C865        O866   1.251       .  A
C865       C1076   1.481       .  S
O866       Cr882   1.961       .  S
O867       Cr882   2.026       .  S
O867        C868   1.273       .  A
C868        O869   1.254       .  A
C868       C1079   1.465       .  S
O869       Cr883   1.939       .  S
O870       Cr883   1.998       .  S
O870        C871   1.267       .  A
C871       C1083   1.487       .  S
O872       Cr881   1.988       .  S
O872        C880   1.260       .  A
O873       Cr881   1.986       .  S
O873        C874   1.256       .  A
C874        O875   1.278       .  A
O875       Cr882   2.047       .  S
O876       Cr882   1.911       .  S
O876        C877   1.240       .  A
C877        O878   1.262       .  A
O878       Cr883   2.002       .  S
O879       Cr883   1.924       .  S
O879        C880   1.247       .  A
Cr881       O884   1.770       .  S
Cr882       O884   1.768       .  S
Cr883       O884   1.775       .  S
O885       Cr903   2.007       .  S
O885        C893   1.275       .  A
O886       Cr903   2.024       .  S
O886        C887   1.267       .  A
C887        O888   1.255       .  A
C887       C1071   1.483       .  S
O888       Cr904   1.969       .  S
O889       Cr904   2.014       .  S
O889        C890   1.271       .  A
C890        O891   1.260       .  A
C890       C1068   1.468       .  S
O891       Cr905   1.956       .  S
O892       Cr905   1.999       .  S
O892        C893   1.268       .  A
C893       C1084   1.487       .  S
O894       Cr903   1.988       .  S
O894        C902   1.258       .  A
O895       Cr903   1.974       .  S
O895        C896   1.256       .  A
C896        O897   1.274       .  A
O897       Cr904   2.033       .  S
O898       Cr904   1.913       .  S
O898        C899   1.241       .  A
C899        O900   1.256       .  A
O900       Cr905   1.983       .  S
O901       Cr905   1.957       .  S
O901        C902   1.251       .  A
Cr903       O906   1.771       .  S
Cr904       O906   1.778       .  S
Cr905       O906   1.779       .  S
O907       Cr925   1.963       .  S
O907        C915   1.255       .  A
O908       Cr925   1.989       .  S
O908        C909   1.257       .  A
C909        O910   1.262       .  A
C909       C1059   1.476       .  S
O910       Cr926   2.000       .  S
O911       Cr926   2.012       .  S
O911        C912   1.264       .  A
C912        O913   1.255       .  A
C912       C1072   1.483       .  S
O913       Cr927   1.978       .  S
O914       Cr927   2.014       .  S
O914        C915   1.269       .  A
C915       C1064   1.470       .  S
O916       Cr925   2.036       .  S
O916        C924   1.267       .  A
O917       Cr925   2.008       .  S
O917        C918   1.278       .  A
C918        O919   1.276       .  A
O919       Cr926   2.062       .  S
O920       Cr926   2.030       .  S
O920        C921   1.279       .  A
C921        O922   1.276       .  A
O922       Cr927   2.051       .  S
O923       Cr927   2.030       .  S
O923        C924   1.276       .  A
Cr925       O928   1.793       .  S
Cr926       O928   1.795       .  S
Cr927       O928   1.794       .  S
O929       Cr947   2.008       .  S
O929        C937   1.274       .  A
O930       Cr947   2.015       .  S
O930        C931   1.266       .  A
C931        O932   1.252       .  A
C931       C1063   1.474       .  S
O932       Cr948   1.962       .  S
O933       Cr948   2.027       .  S
O933        C934   1.274       .  A
C934        O935   1.255       .  A
C934       C1080   1.466       .  S
O935       Cr949   1.937       .  S
O936       Cr949   2.006       .  S
O936        C937   1.269       .  A
C937       C1055   1.490       .  S
O938       Cr947   1.979       .  S
O938        C946   1.257       .  A
O939       Cr947   1.984       .  S
O939        C940   1.260       .  A
C940        O941   1.278       .  A
O941       Cr948   2.046       .  S
O942       Cr948   1.913       .  S
O942        C943   1.242       .  A
C943        O944   1.259       .  A
O944       Cr949   1.994       .  S
O945       Cr949   1.942       .  S
O945        C946   1.247       .  A
Cr947       O950   1.767       .  S
Cr948       O950   1.771       .  S
Cr949       O950   1.778       .  S
O951       Cr969   2.038       .  S
O951        C959   1.278       .  A
O952       Cr969   2.009       .  S
O952        C953   1.267       .  A
C953        O954   1.255       .  A
C953       C1051   1.484       .  S
O954       Cr970   1.981       .  S
O955       Cr970   1.990       .  S
O955        C956   1.271       .  A
C956        O957   1.270       .  A
C956       C1047   1.476       .  S
O957       Cr971   2.000       .  S
O958       Cr971   1.968       .  S
O958        C959   1.261       .  A
C959       C1056   1.489       .  S
O960       Cr969   1.938       .  S
O960        C968   1.247       .  A
O961       Cr969   2.043       .  S
O961        C962   1.277       .  A
C962        O963   1.261       .  A
O963       Cr970   1.977       .  S
O964       Cr970   1.966       .  S
O964        C965   1.248       .  A
C965        O966   1.251       .  A
O966       Cr971   1.980       .  S
O967       Cr971   1.968       .  S
O967        C968   1.254       .  A
Cr969       O972   1.780       .  S
Cr970       O972   1.767       .  S
Cr971       O972   1.781       .  S
O973       Cr991   1.963       .  S
O973        C981   1.251       .  A
O974       Cr991   2.034       .  S
O974        C975   1.270       .  A
C975        O976   1.252       .  A
C975       C1052   1.486       .  S
O976       Cr992   1.969       .  S
O977       Cr992   2.017       .  S
O977        C978   1.266       .  A
C978        O979   1.253       .  A
C978       C1075   1.476       .  S
O979       Cr993   1.972       .  S
O980       Cr993   2.023       .  S
O980        C981   1.269       .  A
C981       C1043   1.478       .  S
O982       Cr991   2.056       .  S
O982        C990   1.288       .  A
O983       Cr991   2.016       .  S
O983        C984   1.264       .  A
C984        O985   1.283       .  A
O985       Cr992   2.042       .  S
O986       Cr992   2.014       .  S
O986        C987   1.264       .  A
C987        O988   1.284       .  A
O988       Cr993   2.044       .  S
O989       Cr993   2.019       .  S
O989        C990   1.265       .  A
Cr991       O994   1.789       .  S
Cr992       O994   1.790       .  S
Cr993       O994   1.791       .  S
O995      Cr1013   1.999       .  S
O995       C1003   1.272       .  A
O996      Cr1013   1.990       .  S
O996        C997   1.259       .  A
C997        O998   1.264       .  A
C997       C1060   1.473       .  S
O998      Cr1014   1.988       .  S
O999      Cr1014   2.034       .  S
O999       C1000   1.275       .  A
C1000      O1001   1.256       .  A
C1000      C1048   1.477       .  S
O1001     Cr1015   1.948       .  S
O1002     Cr1015   2.009       .  S
O1002      C1003   1.270       .  A
C1003      C1040   1.487       .  S
O1004     Cr1013   1.961       .  S
O1004      C1012   1.250       .  A
O1005     Cr1013   1.995       .  S
O1005      C1006   1.263       .  A
C1006      O1007   1.275       .  A
O1007     Cr1014   2.038       .  S
O1008     Cr1014   1.932       .  S
O1008      C1009   1.247       .  A
C1009      O1010   1.260       .  A
O1010     Cr1015   1.993       .  S
O1011     Cr1015   1.943       .  S
O1011      C1012   1.245       .  A
Cr1013     O1016   1.768       .  S
Cr1014     O1016   1.776       .  S
Cr1015     O1016   1.782       .  S
O1017     Cr1035   2.029       .  S
O1017      C1025   1.275       .  A
O1018     Cr1035   2.004       .  S
O1018      C1019   1.266       .  A
C1019      O1020   1.254       .  A
C1019      C1044   1.477       .  S
O1020     Cr1036   1.976       .  S
O1021     Cr1036   1.982       .  S
O1021      C1022   1.267       .  A
C1022      O1023   1.270       .  A
C1022      C1067   1.471       .  S
O1023     Cr1037   1.996       .  S
O1024     Cr1037   1.972       .  S
O1024      C1025   1.262       .  A
C1025      C1039   1.487       .  S
O1026     Cr1035   1.945       .  S
O1026      C1034   1.250       .  A
O1027     Cr1035   2.040       .  S
O1027      C1028   1.275       .  A
C1028      O1029   1.259       .  A
O1029     Cr1036   1.966       .  S
O1030     Cr1036   1.974       .  S
O1030      C1031   1.250       .  A
C1031      O1032   1.253       .  A
O1032     Cr1037   1.982       .  S
O1033     Cr1037   1.971       .  S
O1033      C1034   1.254       .  A
Cr1035     O1038   1.777       .  S
Cr1036     O1038   1.770       .  S
Cr1037     O1038   1.778       .  S
C1039      C1040   1.356       .  D
C1039      H1041   1.087       .  S
C1040      H1042   1.086       .  S
C1043      C1044   1.332       .  D
C1043      H1045   1.088       .  S
C1044      H1046   1.086       .  S
C1047      C1048   1.355       .  D
C1047      H1049   1.086       .  S
C1048      H1050   1.086       .  S
C1051      C1052   1.336       .  D
C1051      H1053   1.086       .  S
C1052      H1054   1.088       .  S
C1055      C1056   1.359       .  D
C1055      H1057   1.086       .  S
C1056      H1058   1.087       .  S
C1059      C1060   1.337       .  D
C1059      H1061   1.088       .  S
C1060      H1062   1.087       .  S
C1063      C1064   1.339       .  D
C1063      H1065   1.087       .  S
C1064      H1066   1.087       .  S
C1067      C1068   1.349       .  D
C1067      H1069   1.087       .  S
C1068      H1070   1.087       .  S
C1071      C1072   1.344       .  D
C1071      H1073   1.087       .  S
C1072      H1074   1.087       .  S
C1075      C1076   1.337       .  D
C1075      H1077   1.088       .  S
C1076      H1078   1.087       .  S
C1079      C1080   1.352       .  D
C1079      H1081   1.087       .  S
C1080      H1082   1.087       .  S
C1083      C1084   1.360       .  D
C1083      H1085   1.086       .  S
C1084      H1086   1.086       .  S
C1087      C2539   1.538       .  S
C1087      C1090   1.500       .  S
C1087      C1390   1.543       .  S
C1088      C2540   1.539   1_455  S
C1088      C1093   1.575   1_455  S
C1088      C1286   1.567       .  S
C1089      C1097   1.391   1_554  A
C1089      C1092   1.428   1_554  A
C1090      C1101   1.355       .  A
C1090      C2179   1.405       .  A
C1091      C2535   1.538       .  S
C1091      C1105   1.376   1_655  A
C1091      C1094   1.420   1_655  A
C1092      C2536   1.548       .  S
C1092      C1095   1.377       .  A
C1093      C2176   1.402   1_556  A
C1093      C1099   1.387   1_655  A
C1094      C1102   1.384       .  A
C1095      N1096   1.343       .  A
C1095      H1108   1.080       .  S
N1096      C1097   1.348       .  A
N1096      C1264   1.432       .  S
C1097      H1098   1.082   1_556  S
C1099      N2186   1.377   1_456  A
C1099      H1109   1.081       .  S
N1100      C2185   1.377       .  A
N1100      C1101   1.340       .  A
N1100      N1123   1.409       .  S
C1101      H1107   1.081       .  S
C1102      N1103   1.341       .  A
C1102      H1104   1.082       .  S
N1103      C1105   1.334       .  A
N1103      C1371   1.410       .  S
C1105      H1106   1.080   1_455  S
C1110      C2560   1.541       .  S
C1110      C1113   1.497       .  S
C1110      C1302   1.551       .  S
C1111      C1115   1.524       .  S
C1111      C1117   1.534       .  S
C1111      C1116   1.581       .  S
C1111      C1352   1.579       .  S
C1112      C2558   1.540       .  S
C1112      C1120   1.376       .  A
C1113      C1124   1.353       .  A
C1113      C2202   1.406   1_456  A
C1114      C1128   1.393       .  A
C1114      C2565   1.426       .  A
C1116      C2199   1.403       .  A
C1116      C1122   1.389       .  A
C1117      C2562   1.429       .  A
C1117      C2573   1.370       .  A
C1118      N1119   1.337       .  A
C1118      H1131   1.082       .  S
N1119      C1120   1.332       .  A
N1119      C1242   1.405       .  S
C1120      H1121   1.079       .  S
C1122      N1123   1.378       .  A
C1122      H1132   1.081       .  S
N1123      C2210   1.340       .  A
C1124      N2209   1.338   1_456  A
C1124      H1130   1.081       .  S
C1125      C2565   1.373       .  A
C1125      N1126   1.341       .  A
C1125      H1127   1.081       .  S
N1126      C1128   1.350       .  A
N1126      C1327   1.428       .  S
C1128      H1129   1.081       .  S
C1133      C1136   1.491       .  S
C1133      C1324   1.549       .  S
C1134      C1139   1.575   1_556  S
C1134      C1283   1.571       .  S
C1135      C1143   1.385       .  A
C1135      C1138   1.432       .  A
C1136      C1147   1.347       .  A
C1137      C1151   1.370   1_554  A
C1137      C1140   1.423   1_554  A
C1138      C1141   1.381       .  A
C1139      C1145   1.387   1_554  A
C1140      C1148   1.391       .  A
C1141      N1142   1.339       .  A
C1141      H1154   1.079       .  S
N1142      C1143   1.347       .  A
N1142      C1374   1.427       .  S
C1143      H1144   1.082       .  S
C1145      H1155   1.079       .  S
N1146      C1147   1.335       .  A
C1147      H1153   1.082       .  S
C1148      N1149   1.339       .  A
C1148      H1150   1.081       .  S
N1149      C1151   1.331       .  A
N1149      C1305   1.409       .  S
C1151      H1152   1.080   1_556  S
C1156      C1158   1.540       .  S
C1156      C1159   1.568       .  S
C1156      C1346   1.568       .  S
C1157      C1162   1.493       .  S
C1157      C1258   1.548       .  S
C1159      C1170   1.381       .  A
C1160      C1174   1.389       .  A
C1160      C1163   1.423       .  A
C1161      C1164   1.386   1_545  A
C1162      C1168   1.351       .  A
C1163      C1171   1.375       .  A
C1164      N1165   1.350       .  A
C1164      H1177   1.082       .  S
N1165      C1166   1.340       .  A
N1165      C1239   1.429       .  S
C1166      H1167   1.080       .  S
C1168      H1178   1.082       .  S
C1170      H1176   1.080       .  S
C1171      N1172   1.336       .  A
C1171      H1173   1.080       .  S
N1172      C1174   1.342       .  A
N1172      C1396   1.415       .  S
C1174      H1175   1.081       .  S
C1179      C1183   1.528       .  S
C1179      C1182   1.577       .  S
C1179      C1349   1.575       .  S
C1180      C2632   1.534       .  S
C1180      C1185   1.495       .  S
C1180      C1368   1.545       .  S
C1181      C1189   1.366       .  A
C1181      C1184   1.426       .  A
C1182      C1193   1.386       .  A
C1182      C1909   1.405   1_565  A
C1183      C2645   1.387       .  A
C1183      C2634   1.419   1_565  A
C1184      C2628   1.541       .  S
C1184      C1187   1.392       .  A
C1185      C1906   1.403   1_455  A
C1185      C1191   1.351       .  A
C1186      C2631   1.419   1_545  A
C1186      C1194   1.375   1_545  A
C1187      N1188   1.350       .  A
C1187      H1200   1.082       .  S
N1188      C1189   1.338       .  A
N1188      C1393   1.423       .  S
C1189      H1190   1.081       .  S
C1191      N2640   1.339   1_455  A
C1191      H1201   1.081       .  S
N1192      C2639   1.336       .  A
C1193      H1199   1.081       .  S
C1194      N1195   1.333       .  A
C1194      H1196   1.080       .  S
N1195      C1197   1.338       .  A
N1195      C1330   1.411       .  S
C1197      C2631   1.389       .  A
C1197      H1198   1.080       .  S
C1202      C2652   1.532   1_455  S
C1202      C1205   1.571   1_455  S
C1202      C1280   1.580       .  S
C1203      C2657   1.538       .  S
C1203      C1208   1.495       .  S
C1203      C1236   1.552       .  S
C1204      C2650   1.522       .  S
C1204      C1212   1.386       .  A
C1204      C1207   1.416       .  A
C1205      C1216   1.383   1_655  A
C1205      C1932   1.405       .  A
C1206      C1220   1.367       .  A
C1206      C1209   1.431   1_455  A
C1207      C1210   1.376       .  A
C1208      C1929   1.406   1_565  A
C1208      C1214   1.350       .  A
C1209      C2651   1.529       .  S
C1209      C1217   1.384   1_655  A
C1210      N1211   1.335       .  A
C1210      H1223   1.080       .  S
N1211      C1212   1.336       .  A
N1211      C1261   1.409       .  S
C1212      H1213   1.082       .  S
C1214      N1215   1.337       .  A
C1214      H1224   1.081       .  S
N1215      C1940   1.377   1_565  A
C1216      N1939   1.375   1_455  A
C1216      H1222   1.081       .  S
C1217      N1218   1.345       .  A
C1217      H1219   1.082   1_455  S
N1218      C1220   1.339       .  A
N1218      C1308   1.417       .  S
C1220      H1221   1.081       .  S
O1225     Cr1243   2.029       .  S
O1225      C1233   1.277       .  A
O1226     Cr1243   1.982       .  S
O1226      C1227   1.259       .  A
C1227      O1228   1.258       .  A
C1227      C1438   1.475       .  S
O1228     Cr1244   1.994       .  S
O1229     Cr1244   1.992       .  S
O1229      C1230   1.270       .  A
C1230      O1231   1.267       .  A
C1230      C1441   1.472       .  S
O1231     Cr1245   1.988       .  S
O1232     Cr1245   1.971       .  S
O1232      C1233   1.263       .  A
C1233      C1445   1.484       .  S
O1234     Cr1243   1.919       .  S
O1234      C1242   1.242       .  A
O1235     Cr1243   2.042       .  S
O1235      C1236   1.277       .  A
C1236      O1237   1.259       .  A
O1237     Cr1244   1.971       .  S
O1238     Cr1244   1.980       .  S
O1238      C1239   1.254       .  A
C1239      O1240   1.254       .  A
O1240     Cr1245   1.984       .  S
O1241     Cr1245   1.963       .  S
O1241      C1242   1.251       .  A
Cr1243     O1246   1.779       .  S
Cr1244     O1246   1.767       .  S
Cr1245     O1246   1.778       .  S
O1247     Cr1265   2.001       .  S
O1247      C1255   1.271       .  A
O1248     Cr1265   2.032       .  S
O1248      C1249   1.271       .  A
C1249      O1250   1.253       .  A
C1249      C1433   1.487       .  S
O1250     Cr1266   1.967       .  S
O1251     Cr1266   2.015       .  S
O1251      C1252   1.272       .  A
C1252      O1253   1.261       .  A
C1252      C1430   1.473       .  S
O1253     Cr1267   1.966       .  S
O1254     Cr1267   2.001       .  S
O1254      C1255   1.268       .  A
C1255      C1446   1.487       .  S
O1256     Cr1265   2.001       .  S
O1256      C1264   1.262       .  A
O1257     Cr1265   1.963       .  S
O1257      C1258   1.252       .  A
C1258      O1259   1.275       .  A
O1259     Cr1266   2.040       .  S
O1260     Cr1266   1.909       .  S
O1260      C1261   1.241       .  A
C1261      O1262   1.258       .  A
O1262     Cr1267   1.991       .  S
O1263     Cr1267   1.956       .  S
O1263      C1264   1.252       .  A
Cr1265     O1268   1.770       .  S
Cr1266     O1268   1.773       .  S
Cr1267     O1268   1.778       .  S
O1269     Cr1287   1.986       .  S
O1269      C1277   1.259       .  A
O1270     Cr1287   1.981       .  S
O1270      C1271   1.258       .  A
C1271      O1272   1.267       .  A
C1271      C1421   1.482       .  S
O1272     Cr1288   2.006       .  S
O1273     Cr1288   2.017       .  S
O1273      C1274   1.264       .  A
C1274      O1275   1.253       .  A
C1274      C1434   1.483       .  S
O1275     Cr1289   1.980       .  S
O1276     Cr1289   1.998       .  S
O1276      C1277   1.265       .  A
C1277      C1426   1.469       .  S
O1278     Cr1287   2.027       .  S
O1278      C1286   1.279       .  A
O1279     Cr1287   2.031       .  S
O1279      C1280   1.267       .  A
C1280      O1281   1.278       .  A
O1281     Cr1288   2.040       .  S
O1282     Cr1288   2.056       .  S
O1282      C1283   1.275       .  A
C1283      O1284   1.279       .  A
O1284     Cr1289   2.009       .  S
O1285     Cr1289   2.031       .  S
O1285      C1286   1.264       .  A
Cr1287     O1290   1.787       .  S
Cr1288     O1290   1.792       .  S
Cr1289     O1290   1.781       .  S
O1291     Cr1309   2.001       .  S
O1291      C1299   1.271       .  A
O1292     Cr1309   2.016       .  S
O1292      C1293   1.269       .  A
C1293      O1294   1.252       .  A
C1293      C1425   1.474       .  S
O1294     Cr1310   1.961       .  S
O1295     Cr1310   2.024       .  S
O1295      C1296   1.273       .  A
C1296      O1297   1.256       .  A
C1296      C1442   1.469       .  S
O1297     Cr1311   1.948       .  S
O1298     Cr1311   1.990       .  S
O1298      C1299   1.267       .  A
C1299      C1417   1.482       .  S
O1300     Cr1309   1.990       .  S
O1300      C1308   1.259       .  A
O1301     Cr1309   1.971       .  S
O1301      C1302   1.255       .  A
C1302      O1303   1.276       .  A
O1303     Cr1310   2.045       .  S
O1304     Cr1310   1.902       .  S
O1304      C1305   1.241       .  A
C1305      O1306   1.260       .  A
O1306     Cr1311   1.995       .  S
O1307     Cr1311   1.931       .  S
O1307      C1308   1.248       .  A
Cr1309     O1312   1.765       .  S
Cr1310     O1312   1.769       .  S
Cr1311     O1312   1.772       .  S
O1313     Cr1331   2.021       .  S
O1313      C1321   1.274       .  A
O1314     Cr1331   1.974       .  S
O1314      C1315   1.255       .  A
C1315      O1316   1.266       .  A
C1315      C1413   1.486       .  S
O1316     Cr1332   2.021       .  S
O1317     Cr1332   2.001       .  S
O1317      C1318   1.272       .  A
C1318      O1319   1.267       .  A
C1318      C1409   1.482       .  S
O1319     Cr1333   1.989       .  S
O1320     Cr1333   1.965       .  S
O1320      C1321   1.260       .  A
C1321      C1418   1.477       .  S
O1322     Cr1331   1.911       .  S
O1322      C1330   1.241       .  A
O1323     Cr1331   2.039       .  S
O1323      C1324   1.276       .  A
C1324      O1325   1.256       .  A
O1325     Cr1332   1.967       .  S
O1326     Cr1332   1.997       .  S
O1326      C1327   1.258       .  A
C1327      O1328   1.251       .  A
O1328     Cr1333   1.954       .  S
O1329     Cr1333   1.983       .  S
O1329      C1330   1.256       .  A
Cr1331     O1334   1.778       .  S
Cr1332     O1334   1.774       .  S
Cr1333     O1334   1.779       .  S
O1335     Cr1353   2.012       .  S
O1335      C1343   1.267       .  A
O1336     Cr1353   1.978       .  S
O1336      C1337   1.257       .  A
C1337      O1338   1.266       .  A
C1337      C1414   1.483       .  S
O1338     Cr1354   2.017       .  S
O1339     Cr1354   1.990       .  S
O1339      C1340   1.261       .  A
C1340      O1341   1.261       .  A
C1340      C1437   1.478       .  S
O1341     Cr1355   1.997       .  S
O1342     Cr1355   1.967       .  S
O1342      C1343   1.255       .  A
C1343      C1405   1.472       .  S
O1344     Cr1353   2.025       .  S
O1344      C1352   1.274       .  A
O1345     Cr1353   2.044       .  S
O1345      C1346   1.272       .  A
C1346      O1347   1.278       .  A
O1347     Cr1354   2.020       .  S
O1348     Cr1354   2.062       .  S
O1348      C1349   1.276       .  A
C1349      O1350   1.278       .  A
O1350     Cr1355   2.014       .  S
O1351     Cr1355   2.045       .  S
O1351      C1352   1.270       .  A
Cr1353     O1356   1.792       .  S
Cr1354     O1356   1.790       .  S
Cr1355     O1356   1.790       .  S
O1357     Cr1375   1.996       .  S
O1357      C1365   1.272       .  A
O1358     Cr1375   1.992       .  S
O1358      C1359   1.258       .  A
C1359      O1360   1.259       .  A
C1359      C1422   1.477       .  S
O1360     Cr1376   1.985       .  S
O1361     Cr1376   2.026       .  S
O1361      C1362   1.277       .  A
C1362      O1363   1.261       .  A
C1362      C1410   1.478       .  S
O1363     Cr1377   1.963       .  S
O1364     Cr1377   1.997       .  S
O1364      C1365   1.269       .  A
C1365      C1402   1.481       .  S
O1366     Cr1375   1.979       .  S
O1366      C1374   1.254       .  A
O1367     Cr1375   1.961       .  S
O1367      C1368   1.256       .  A
C1368      O1369   1.276       .  A
O1369     Cr1376   2.043       .  S
O1370     Cr1376   1.922       .  S
O1370      C1371   1.243       .  A
C1371      O1372   1.253       .  A
O1372     Cr1377   1.972       .  S
O1373     Cr1377   1.977       .  S
O1373      C1374   1.252       .  A
Cr1375     O1378   1.767       .  S
Cr1376     O1378   1.781       .  S
Cr1377     O1378   1.779       .  S
O1379     Cr1397   2.024       .  S
O1379      C1387   1.274       .  A
O1380     Cr1397   1.971       .  S
O1380      C1381   1.255       .  A
C1381      O1382   1.264       .  A
C1381      C1406   1.478       .  S
O1382     Cr1398   2.008       .  S
O1383     Cr1398   1.994       .  S
O1383      C1384   1.270       .  A
C1384      O1385   1.269       .  A
C1384      C1429   1.480       .  S
O1385     Cr1399   1.995       .  S
O1386     Cr1399   1.961       .  S
O1386      C1387   1.258       .  A
C1387      C1401   1.478       .  S
O1388     Cr1397   1.916       .  S
O1388      C1396   1.244       .  A
O1389     Cr1397   2.041       .  S
O1389      C1390   1.275       .  A
C1390      O1391   1.256       .  A
O1391     Cr1398   1.965       .  S
O1392     Cr1398   1.992       .  S
O1392      C1393   1.256       .  A
C1393      O1394   1.249       .  A
O1394     Cr1399   1.944       .  S
O1395     Cr1399   1.992       .  S
O1395      C1396   1.259       .  A
Cr1397     O1400   1.774       .  S
Cr1398     O1400   1.772       .  S
Cr1399     O1400   1.777       .  S
C1401      C1402   1.355       .  D
C1401      H1403   1.087       .  S
C1402      H1404   1.086       .  S
C1405      C1406   1.343       .  D
C1405      H1407   1.087       .  S
C1406      H1408   1.087       .  S
C1409      C1410   1.356       .  D
C1409      H1411   1.086       .  S
C1410      H1412   1.087       .  S
C1413      C1414   1.345       .  D
C1413      H1415   1.087       .  S
C1414      H1416   1.086       .  S
C1417      C1418   1.355       .  D
C1417      H1419   1.086       .  S
C1418      H1420   1.087       .  S
C1421      C1422   1.343       .  D
C1421      H1423   1.087       .  S
C1422      H1424   1.087       .  S
C1425      C1426   1.337       .  D
C1425      H1427   1.087       .  S
C1426      H1428   1.088       .  S
C1429      C1430   1.351       .  D
C1429      H1431   1.086       .  S
C1430      H1432   1.087       .  S
C1433      C1434   1.340       .  D
C1433      H1435   1.086       .  S
C1434      H1436   1.087       .  S
C1437      C1438   1.341       .  D
C1437      H1439   1.088       .  S
C1438      H1440   1.087       .  S
C1441      C1442   1.353       .  D
C1441      H1443   1.086       .  S
C1442      H1444   1.087       .  S
C1445      C1446   1.356       .  D
C1445      H1447   1.087       .  S
C1446      H1448   1.086       .  S
C1449      C1813   1.533       .  S
C1449      C1452   1.493       .  S
C1449      C1752   1.546       .  S
C1450      C1818   1.531       .  S
C1450      C1455   1.573       .  S
C1450      C1648   1.568       .  S
C1451      C1811   1.530       .  S
C1451      C1459   1.386       .  A
C1451      C1454   1.430       .  A
C1452      C1463   1.350       .  A
C1453      C1467   1.376       .  A
C1453      C1456   1.418       .  A
C1454      C1457   1.375       .  A
C1455      C1461   1.384       .  A
C1456      C1812   1.525   1_554  S
C1456      C1464   1.389       .  A
C1457      N1458   1.341       .  A
C1457      H1470   1.081       .  S
N1458      C1459   1.346       .  A
N1458      C1626   1.426       .  S
C1459      H1460   1.082       .  S
C1461      H1471   1.081       .  S
N1462      C1463   1.338       .  A
N1462      N1485   1.405       .  S
C1463      H1469   1.081       .  S
C1464      N1465   1.340       .  A
C1464      H1466   1.082       .  S
N1465      C1467   1.333       .  A
N1465      C1733   1.412       .  S
C1467      H1468   1.080       .  S
C1472      C1838   1.524       .  S
C1472      C1475   1.502       .  S
C1472      C1664   1.546       .  S
C1473      C1477   1.538   1_554  S
C1473      C1479   1.535   1_655  S
C1473      C1478   1.571       .  S
C1473      C1714   1.567       .  S
C1474      C1482   1.377   1_455  A
C1474      C1839   1.418   1_455  A
C1475      C1486   1.353       .  A
C1476      C1834   1.525       .  S
C1476      C1490   1.375   1_556  A
C1477      C1836   1.422   1_655  A
C1477      C1842   1.392       .  A
C1478      C1484   1.383       .  A
C1480      C1839   1.385       .  A
C1480      N1481   1.341       .  A
C1480      H1493   1.082       .  S
N1481      C1482   1.335       .  A
N1481      C1604   1.412       .  S
C1482      H1483   1.080       .  S
C1484      N1485   1.376       .  A
C1484      H1494   1.080       .  S
C1486      H1492   1.081       .  S
C1487      N1488   1.349       .  A
C1487      H1489   1.082       .  S
N1488      C1490   1.340       .  A
N1488      C1689   1.426       .  S
C1490      H1491   1.080       .  S
C1495      C2221   1.531       .  S
C1495      C1861   1.538       .  S
C1495      C1498   1.499       .  S
C1495      C1686   1.556       .  S
C1496      C1862   1.540       .  S
C1496      C2226   1.531   1_545  S
C1496      C1501   1.571       .  S
C1496      C1645   1.570       .  S
C1497      C2219   1.535       .  S
C1497      C1505   1.386   1_565  A
C1497      C1500   1.433   1_565  A
C1498      C1509   1.355       .  A
C1498      C2587   1.407       .  A
C1499      C1857   1.534       .  S
C1499      C1513   1.373       .  A
C1499      C1502   1.426       .  A
C1500      C1858   1.543   1_554  S
C1500      C1503   1.374       .  A
C1501      C2584   1.404   1_545  A
C1501      C1507   1.383       .  A
C1502      C2220   1.527       .  S
C1502      C1510   1.378       .  A
C1503      N1504   1.339       .  A
C1503      H1516   1.080       .  S
N1504      C1505   1.348       .  A
N1504      C1736   1.424       .  S
C1505      H1506   1.082   1_545  S
C1507      N2594   1.376   1_545  A
C1507      H1517   1.080       .  S
N1508      C2593   1.377   1_554  A
N1508      C1509   1.337       .  A
N1508      N2255   1.407       .  S
C1509      H1515   1.081       .  S
C1510      N1511   1.339       .  A
C1510      H1512   1.082       .  S
N1511      C1513   1.344       .  A
N1511      C1667   1.412       .  S
C1513      H1514   1.080       .  S
C1518      C1520   1.538   1_554  S
C1518      C2246   1.531       .  S
C1518      C1521   1.580       .  S
C1518      C1708   1.583       .  S
C1519      C2247   1.520       .  S
C1519      C1887   1.533       .  S
C1519      C1524   1.500       .  S
C1519      C1620   1.556       .  S
C1520      C1890   1.371       .  A
C1520      C1885   1.428       .  A
C1521      C1532   1.390       .  A
C1521      C2610   1.406   1_554  A
C1522      C2242   1.519   1_545  S
C1522      C1536   1.379       .  A
C1522      C1525   1.423   1_554  A
C1523      C2243   1.533       .  S
C1523      C1882   1.431       .  A
C1523      C1526   1.383       .  A
C1524      C2607   1.408   1_545  A
C1524      C1530   1.350       .  A
C1525      C1881   1.539       .  S
C1525      C1533   1.375   1_556  A
C1526      N1527   1.349       .  A
C1526      H1539   1.082       .  S
N1527      C1528   1.339       .  A
N1527      C1601   1.424       .  S
C1528      C1882   1.378       .  A
C1528      H1529   1.080       .  S
C1530      N1893   1.338   1_545  A
C1530      H1540   1.083       .  S
N1531      C1892   1.336   1_554  A
N1531      C2256   1.377   1_545  A
N1531      N2232   1.405   1_545  S
C1532      N2255   1.379       .  A
C1532      H1538   1.079       .  S
C1533      N1534   1.335       .  A
C1533      H1535   1.079       .  S
N1534      C1536   1.334       .  A
N1534      C1758   1.403       .  S
C1536      H1537   1.081       .  S
C1541      C2267   1.531       .  S
C1541      C1545   1.537   1_655  S
C1541      C1544   1.577       .  S
C1541      C1711   1.580       .  S
C1542      C2272   1.542       .  S
C1542      C1547   1.494       .  S
C1542      C1730   1.547       .  S
C1543      C2265   1.543   1_545  S
C1543      C1551   1.377       .  A
C1543      C1546   1.427   1_655  A
C1544      C1555   1.387       .  A
C1546      C1549   1.390   1_455  A
C1547      C1553   1.351       .  A
C1548      C2266   1.541       .  S
C1548      C1556   1.386       .  A
C1549      N1550   1.348       .  A
C1549      H1562   1.082       .  S
N1550      C1551   1.341       .  A
N1550      C1755   1.429       .  S
C1551      H1552   1.081       .  S
C1553      H1563   1.081       .  S
N1554      C2279   1.375   1_545  A
N1554      N2301   1.407   1_545  S
C1555      N2278   1.377   1_655  A
C1555      H1561   1.081       .  S
C1556      N1557   1.341       .  A
C1556      H1558   1.081       .  S
N1557      C1559   1.330       .  A
N1557      C1692   1.410       .  S
C1559      H1560   1.079       .  S
C1564      C2292   1.534   1_545  S
C1564      C1567   1.572       .  S
C1564      C1642   1.586       .  S
C1565      C2293   1.538       .  S
C1565      C1570   1.500       .  S
C1565      C1598   1.551       .  S
C1566      C1574   1.379       .  A
C1566      C1569   1.427   1_545  A
C1567      C1578   1.383       .  A
C1568      C2288   1.538       .  S
C1568      C1582   1.373       .  A
C1568      C1571   1.428       .  A
C1569      C2289   1.531       .  S
C1569      C1572   1.372   1_565  A
C1570      C1576   1.354       .  A
C1571      C1579   1.390       .  A
C1572      N1573   1.341       .  A
C1572      H1585   1.080   1_545  S
N1573      C1574   1.339       .  A
N1573      C1623   1.409       .  S
C1574      H1575   1.082       .  S
C1576      N1577   1.340       .  A
C1576      H1586   1.081       .  S
N1577      N2278   1.407   1_655  S
C1578      H1584   1.081       .  S
C1579      N1580   1.350       .  A
C1579      H1581   1.082       .  S
N1580      C1582   1.342       .  A
N1580      C1670   1.428       .  S
C1582      H1583   1.082       .  S
O1587     Cr1605   2.034       .  S
O1587      C1595   1.278       .  A
O1588     Cr1605   1.991       .  S
O1588      C1589   1.261       .  A
C1589      O1590   1.257       .  A
C1589      C1800   1.478       .  S
O1590     Cr1606   1.989       .  S
O1591     Cr1606   1.996       .  S
O1591      C1592   1.271       .  A
C1592      O1593   1.268       .  A
C1592      C1803   1.478       .  S
O1593     Cr1607   1.991       .  S
O1594     Cr1607   1.970       .  S
O1594      C1595   1.262       .  A
C1595      C1807   1.486       .  S
O1596     Cr1605   1.924       .  S
O1596      C1604   1.244       .  A
O1597     Cr1605   2.049       .  S
O1597      C1598   1.278       .  A
C1598      O1599   1.258       .  A
O1599     Cr1606   1.971       .  S
O1600     Cr1606   1.974       .  S
O1600      C1601   1.252       .  A
C1601      O1602   1.253       .  A
O1602     Cr1607   1.976       .  S
O1603     Cr1607   1.973       .  S
O1603      C1604   1.253       .  A
Cr1605     O1608   1.779       .  S
Cr1606     O1608   1.770       .  S
Cr1607     O1608   1.781       .  S
O1609     Cr1627   2.002       .  S
O1609      C1617   1.272       .  A
O1610     Cr1627   2.033       .  S
O1610      C1611   1.271       .  A
C1611      O1612   1.253       .  A
C1611      C1795   1.487       .  S
O1612     Cr1628   1.968       .  S
O1613     Cr1628   2.031       .  S
O1613      C1614   1.276       .  A
C1614      O1615   1.259       .  A
C1614      C1792   1.475       .  S
O1615     Cr1629   1.956       .  S
O1616     Cr1629   2.003       .  S
O1616      C1617   1.269       .  A
C1617      C1808   1.488       .  S
O1618     Cr1627   1.995       .  S
O1618      C1626   1.262       .  A
O1619     Cr1627   1.965       .  S
O1619      C1620   1.252       .  A
C1620      O1621   1.279       .  A
O1621     Cr1628   2.054       .  S
O1622     Cr1628   1.915       .  S
O1622      C1623   1.240       .  A
C1623      O1624   1.259       .  A
O1624     Cr1629   1.992       .  S
O1625     Cr1629   1.953       .  S
O1625      C1626   1.252       .  A
Cr1627     O1630   1.768       .  S
Cr1628     O1630   1.771       .  S
Cr1629     O1630   1.774       .  S
O1631     Cr1649   1.994       .  S
O1631      C1639   1.261       .  A
O1632     Cr1649   1.987       .  S
O1632      C1633   1.260       .  A
C1633      O1634   1.265       .  A
C1633      C1783   1.484       .  S
O1634     Cr1650   1.999       .  S
O1635     Cr1650   2.017       .  S
O1635      C1636   1.264       .  A
C1636      O1637   1.254       .  A
C1636      C1796   1.484       .  S
O1637     Cr1651   1.984       .  S
O1638     Cr1651   2.004       .  S
O1638      C1639   1.267       .  A
C1639      C1788   1.477       .  S
O1640     Cr1649   2.026       .  S
O1640      C1648   1.278       .  A
O1641     Cr1649   2.043       .  S
O1641      C1642   1.270       .  A
C1642      O1643   1.279       .  A
O1643     Cr1650   2.039       .  S
O1644     Cr1650   2.048       .  S
O1644      C1645   1.273       .  A
C1645      O1646   1.281       .  A
O1646     Cr1651   2.018       .  S
O1647     Cr1651   2.032       .  S
O1647      C1648   1.264       .  A
Cr1649     O1652   1.789       .  S
Cr1650     O1652   1.790       .  S
Cr1651     O1652   1.785       .  S
O1653     Cr1671   1.996       .  S
O1653      C1661   1.271       .  A
O1654     Cr1671   2.023       .  S
O1654      C1655   1.268       .  A
C1655      O1656   1.252       .  A
C1655      C1787   1.481       .  S
O1656     Cr1672   1.966       .  S
O1657     Cr1672   2.022       .  S
O1657      C1658   1.274       .  A
C1658      O1659   1.258       .  A
C1658      C1804   1.472       .  S
O1659     Cr1673   1.957       .  S
O1660     Cr1673   2.002       .  S
O1660      C1661   1.269       .  A
C1661      C1779   1.481       .  S
O1662     Cr1671   1.996       .  S
O1662      C1670   1.260       .  A
O1663     Cr1671   1.960       .  S
O1663      C1664   1.253       .  A
C1664      O1665   1.277       .  A
O1665     Cr1672   2.048       .  S
O1666     Cr1672   1.915       .  S
O1666      C1667   1.241       .  A
C1667      O1668   1.261       .  A
O1668     Cr1673   1.996       .  S
O1669     Cr1673   1.957       .  S
O1669      C1670   1.253       .  A
Cr1671     O1674   1.769       .  S
Cr1672     O1674   1.773       .  S
Cr1673     O1674   1.773       .  S
O1675     Cr1693   1.996       .  S
O1675      C1683   1.272       .  A
O1676     Cr1693   2.000       .  S
O1676      C1677   1.261       .  A
C1677      O1678   1.265       .  A
C1677      C1775   1.486       .  S
O1678     Cr1694   1.997       .  S
O1679     Cr1694   2.044       .  S
O1679      C1680   1.278       .  A
C1680      O1681   1.255       .  A
C1680      C1771   1.485       .  S
O1681     Cr1695   1.947       .  S
O1682     Cr1695   2.006       .  S
O1682      C1683   1.270       .  A
C1683      C1780   1.481       .  S
O1684     Cr1693   1.963       .  S
O1684      C1692   1.248       .  A
O1685     Cr1693   1.997       .  S
O1685      C1686   1.262       .  A
C1686      O1687   1.278       .  A
O1687     Cr1694   2.041       .  S
O1688     Cr1694   1.943       .  S
O1688      C1689   1.247       .  A
C1689      O1690   1.260       .  A
O1690     Cr1695   1.995       .  S
O1691     Cr1695   1.943       .  S
O1691      C1692   1.246       .  A
Cr1693     O1696   1.775       .  S
Cr1694     O1696   1.776       .  S
Cr1695     O1696   1.782       .  S
O1697     Cr1715   2.002       .  S
O1697      C1705   1.264       .  A
O1698     Cr1715   1.986       .  S
O1698      C1699   1.256       .  A
C1699      O1700   1.264       .  A
C1699      C1776   1.485       .  S
O1700     Cr1716   2.011       .  S
O1701     Cr1716   2.014       .  S
O1701      C1702   1.268       .  A
C1702      O1703   1.256       .  A
C1702      C1799   1.483       .  S
O1703     Cr1717   1.976       .  S
O1704     Cr1717   1.984       .  S
O1704      C1705   1.256       .  A
C1705      C1767   1.470       .  S
O1706     Cr1715   2.040       .  S
O1706      C1714   1.269       .  A
O1707     Cr1715   2.026       .  S
O1707      C1708   1.282       .  A
C1708      O1709   1.275       .  A
O1709     Cr1716   2.058       .  S
O1710     Cr1716   2.040       .  S
O1710      C1711   1.278       .  A
C1711      O1712   1.269       .  A
O1712     Cr1717   2.036       .  S
O1713     Cr1717   2.022       .  S
O1713      C1714   1.280       .  A
Cr1715     O1718   1.781       .  S
Cr1716     O1718   1.794       .  S
Cr1717     O1718   1.793       .  S
O1719     Cr1737   1.992       .  S
O1719      C1727   1.270       .  A
O1720     Cr1737   1.999       .  S
O1720      C1721   1.260       .  A
C1721      O1722   1.258       .  A
C1721      C1784   1.479       .  S
O1722     Cr1738   1.983       .  S
O1723     Cr1738   2.037       .  S
O1723      C1724   1.279       .  A
C1724      O1725   1.259       .  A
C1724      C1772   1.481       .  S
O1725     Cr1739   1.957       .  S
O1726     Cr1739   1.994       .  S
O1726      C1727   1.269       .  A
C1727      C1764   1.477       .  S
O1728     Cr1737   1.983       .  S
O1728      C1736   1.255       .  A
O1729     Cr1737   1.958       .  S
O1729      C1730   1.254       .  A
C1730      O1731   1.279       .  A
O1731     Cr1738   2.052       .  S
O1732     Cr1738   1.916       .  S
O1732      C1733   1.242       .  A
C1733      O1734   1.254       .  A
O1734     Cr1739   1.977       .  S
O1735     Cr1739   1.961       .  S
O1735      C1736   1.250       .  A
Cr1737     O1740   1.768       .  S
Cr1738     O1740   1.777       .  S
Cr1739     O1740   1.780       .  S
O1741     Cr1759   2.015       .  S
O1741      C1749   1.272       .  A
O1742     Cr1759   1.962       .  S
O1742      C1743   1.249       .  A
C1743      O1744   1.267       .  A
C1743      C1768   1.475       .  S
O1744     Cr1760   2.017       .  S
O1745     Cr1760   1.998       .  S
O1745      C1746   1.272       .  A
C1746      O1747   1.267       .  A
C1746      C1791   1.479       .  S
O1747     Cr1761   1.991       .  S
O1748     Cr1761   1.964       .  S
O1748      C1749   1.260       .  A
C1749      C1763   1.471       .  S
O1750     Cr1759   1.905       .  S
O1750      C1758   1.240       .  A
O1751     Cr1759   2.046       .  S
O1751      C1752   1.278       .  A
C1752      O1753   1.254       .  A
O1753     Cr1760   1.960       .  S
O1754     Cr1760   1.994       .  S
O1754      C1755   1.260       .  A
C1755      O1756   1.254       .  A
O1756     Cr1761   1.965       .  S
O1757     Cr1761   1.980       .  S
O1757      C1758   1.257       .  A
Cr1759     O1762   1.770       .  S
Cr1760     O1762   1.766       .  S
Cr1761     O1762   1.771       .  S
C1763      C1764   1.352       .  D
C1763      H1765   1.087       .  S
C1764      H1766   1.086       .  S
C1767      C1768   1.337       .  D
C1767      H1769   1.087       .  S
C1768      H1770   1.087       .  S
C1771      C1772   1.360       .  D
C1771      H1773   1.086       .  S
C1772      H1774   1.086       .  S
C1775      C1776   1.341       .  D
C1775      H1777   1.087       .  S
C1776      H1778   1.087       .  S
C1779      C1780   1.355       .  D
C1779      H1781   1.086       .  S
C1780      H1782   1.087       .  S
C1783      C1784   1.346       .  D
C1783      H1785   1.087       .  S
C1784      H1786   1.087       .  S
C1787      C1788   1.341       .  D
C1787      H1789   1.087       .  S
C1788      H1790   1.087       .  S
C1791      C1792   1.355       .  D
C1791      H1793   1.086       .  S
C1792      H1794   1.087       .  S
C1795      C1796   1.341       .  D
C1795      H1797   1.086       .  S
C1796      H1798   1.087       .  S
C1799      C1800   1.342       .  D
C1799      H1801   1.087       .  S
C1800      H1802   1.087       .  S
C1803      C1804   1.354       .  D
C1803      H1805   1.086       .  S
C1804      H1806   1.087       .  S
C1807      C1808   1.357       .  D
C1807      H1809   1.087       .  S
C1808      H1810   1.086       .  S
C1811      C1814   1.502       .  S
C1811      C2114   1.550       .  S
C1812      C1817   1.569       .  S
C1812      C2010   1.567       .  S
C1813      C1821   1.388   1_554  A
C1813      C1816   1.428   1_554  A
C1814      C1825   1.353       .  A
C1815      C1829   1.383       .  A
C1815      C1818   1.420       .  A
C1816      C1819   1.369       .  A
C1817      C1823   1.380       .  A
C1818      C1826   1.390       .  A
C1819      N1820   1.337       .  A
C1819      H1832   1.080       .  S
N1820      C1821   1.347       .  A
N1820      C1988   1.421       .  S
C1821      H1822   1.082   1_556  S
C1823      H1833   1.081       .  S
N1824      C1825   1.338       .  A
N1824      N1847   1.406   1_655  S
C1825      H1831   1.081       .  S
C1826      N1827   1.343       .  A
C1826      H1828   1.081       .  S
N1827      C1829   1.337       .  A
N1827      C2095   1.421       .  S
C1829      H1830   1.080       .  S
C1834      C1837   1.502       .  S
C1834      C2026   1.542       .  S
C1835      C1839   1.522       .  S
C1835      C1841   1.551   1_655  S
C1835      C1840   1.575       .  S
C1835      C2076   1.576       .  S
C1836      C1844   1.379   1_455  A
C1837      C1848   1.351       .  A
C1838      C1852   1.372       .  A
C1840      C1846   1.386       .  A
C1842      N1843   1.344       .  A
C1842      H1855   1.081       .  S
N1843      C1844   1.335       .  A
N1843      C1966   1.421       .  S
C1844      H1845   1.080       .  S
C1846      N1847   1.375   1_655  A
C1846      H1856   1.081       .  S
C1848      H1854   1.081       .  S
C1849      N1850   1.341       .  A
C1849      H1851   1.082       .  S
N1850      C1852   1.338       .  A
N1850      C2051   1.412       .  S
C1852      H1853   1.080       .  S
C1857      C2583   1.532       .  S
C1857      C1860   1.498       .  S
C1857      C2048   1.551       .  S
C1858      C2588   1.522   1_545  S
C1858      C1863   1.577   1_556  S
C1858      C2007   1.579       .  S
C1859      C2581   1.534       .  S
C1859      C1867   1.390   1_565  A
C1859      C1862   1.428   1_565  A
C1860      C1871   1.354       .  A
C1860      C2225   1.404       .  A
C1861      C1875   1.377       .  A
C1861      C1864   1.427   1_554  A
C1862      C1865   1.373       .  A
C1863      C2222   1.407   1_545  A
C1863      C1869   1.385   1_554  A
C1864      C2582   1.528       .  S
C1864      C1872   1.378       .  A
C1865      N1866   1.334       .  A
C1865      H1878   1.079       .  S
N1866      C1867   1.349       .  A
N1866      C2098   1.423       .  S
C1867      H1868   1.082   1_545  S
C1869      N2232   1.377   1_546  A
C1869      H1879   1.079       .  S
N1870      C2231   1.377       .  A
N1870      C1871   1.338       .  A
N1870      N2617   1.407       .  S
C1871      H1877   1.082       .  S
C1872      N1873   1.340       .  A
C1872      H1874   1.082       .  S
N1873      C1875   1.345   1_556  A
N1873      C2029   1.416       .  S
C1875      H1876   1.080       .  S
C1880      C1882   1.545       .  S
C1880      C2608   1.520       .  S
C1880      C1883   1.577       .  S
C1880      C2070   1.577       .  S
C1881      C2609   1.535       .  S
C1881      C1886   1.495       .  S
C1881      C1982   1.560       .  S
C1883      C1894   1.390       .  A
C1883      C2248   1.408       .  A
C1884      C2604   1.540   1_545  S
C1884      C1898   1.391       .  A
C1884      C1887   1.426       .  A
C1885      C2605   1.531       .  S
C1885      C1888   1.385       .  A
C1886      C2245   1.406   1_546  A
C1886      C1892   1.349       .  A
C1887      C1895   1.371       .  A
C1888      N1889   1.347       .  A
C1888      H1901   1.082       .  S
N1889      C1890   1.333       .  A
N1889      C1963   1.417       .  S
C1890      H1891   1.080       .  S
C1892      H1902   1.082       .  S
N1893      C2618   1.376       .  A
N1893      N2594   1.403       .  S
C1894      N2617   1.377       .  A
C1894      H1900   1.080       .  S
C1895      N1896   1.333       .  A
C1895      H1897   1.079       .  S
N1896      C1898   1.343       .  A
N1896      C2120   1.414       .  S
C1898      H1899   1.081       .  S
C1903      C2629   1.540       .  S
C1903      C1907   1.521   1_655  S
C1903      C1906   1.574       .  S
C1903      C2073   1.566       .  S
C1904      C2634   1.539       .  S
C1904      C1909   1.495       .  S
C1904      C2092   1.545       .  S
C1905      C2627   1.536   1_545  S
C1905      C1913   1.372       .  A
C1905      C1908   1.427   1_655  A
C1906      C1917   1.385       .  A
C1908      C1911   1.387   1_455  A
C1909      C1915   1.350       .  A
C1910      C2628   1.540       .  S
C1910      C1918   1.385       .  A
C1911      N1912   1.347       .  A
C1911      H1924   1.082       .  S
N1912      C1913   1.337       .  A
N1912      C2117   1.421       .  S
C1913      H1914   1.081       .  S
C1915      H1925   1.081       .  S
N1916      C2641   1.376   1_545  A
N1916      N2663   1.407   1_545  S
C1917      N2640   1.376       .  A
C1917      H1923   1.080       .  S
C1918      N1919   1.340       .  A
C1918      H1920   1.081       .  S
N1919      C1921   1.336       .  A
N1919      C2054   1.418       .  S
C1921      H1922   1.079       .  S
C1926      C2654   1.540   1_545  S
C1926      C1929   1.577       .  S
C1926      C2004   1.574       .  S
C1927      C2655   1.538       .  S
C1927      C1932   1.498       .  S
C1927      C1960   1.555       .  S
C1928      C1936   1.390       .  A
C1928      C1931   1.426   1_545  A
C1929      C1940   1.386       .  A
C1930      C2650   1.537       .  S
C1930      C1944   1.374       .  A
C1930      C1933   1.427       .  A
C1931      C2651   1.534       .  S
C1931      C1934   1.369   1_565  A
C1932      C1938   1.352       .  A
C1933      C1941   1.391       .  A
C1934      N1935   1.331       .  A
C1934      H1947   1.079   1_545  S
N1935      C1936   1.338       .  A
N1935      C1985   1.408       .  S
C1936      H1937   1.080       .  S
C1938      N1939   1.340       .  A
C1938      H1948   1.081       .  S
N1939      N2640   1.405       .  S
C1940      H1946   1.081       .  S
C1941      N1942   1.350       .  A
C1941      H1943   1.082       .  S
N1942      C1944   1.340       .  A
N1942      C2032   1.428       .  S
C1944      H1945   1.081       .  S
O1949     Cr1967   2.031       .  S
O1949      C1957   1.276       .  A
O1950     Cr1967   1.991       .  S
O1950      C1951   1.261       .  A
C1951      O1952   1.255       .  A
C1951      C2162   1.471       .  S
O1952     Cr1968   1.981       .  S
O1953     Cr1968   1.992       .  S
O1953      C1954   1.271       .  A
C1954      O1955   1.269       .  A
C1954      C2165   1.477       .  S
O1955     Cr1969   1.994       .  S
O1956     Cr1969   1.962       .  S
O1956      C1957   1.258       .  A
C1957      C2169   1.482       .  S
O1958     Cr1967   1.936       .  S
O1958      C1966   1.247       .  A
O1959     Cr1967   2.046       .  S
O1959      C1960   1.277       .  A
C1960      O1961   1.260       .  A
O1961     Cr1968   1.978       .  S
O1962     Cr1968   1.971       .  S
O1962      C1963   1.248       .  A
C1963      O1964   1.249       .  A
O1964     Cr1969   1.954       .  S
O1965     Cr1969   1.983       .  S
O1965      C1966   1.258       .  A
Cr1967     O1970   1.779       .  S
Cr1968     O1970   1.771       .  S
Cr1969     O1970   1.777       .  S
O1971     Cr1989   2.008       .  S
O1971      C1979   1.275       .  A
O1972     Cr1989   2.019       .  S
O1972      C1973   1.267       .  A
C1973      O1974   1.256       .  A
C1973      C2157   1.483       .  S
O1974     Cr1990   1.971       .  S
O1975     Cr1990   2.030       .  S
O1975      C1976   1.276       .  A
C1976      O1977   1.260       .  A
C1976      C2154   1.479       .  S
O1977     Cr1991   1.961       .  S
O1978     Cr1991   1.986       .  S
O1978      C1979   1.266       .  A
C1979      C2170   1.485       .  S
O1980     Cr1989   1.985       .  S
O1980      C1988   1.256       .  A
O1981     Cr1989   1.981       .  S
O1981      C1982   1.258       .  A
C1982      O1983   1.276       .  A
O1983     Cr1990   2.045       .  S
O1984     Cr1990   1.905       .  S
O1984      C1985   1.240       .  A
C1985      O1986   1.255       .  A
O1986     Cr1991   1.981       .  S
O1987     Cr1991   1.947       .  S
O1987      C1988   1.250       .  A
Cr1989     O1992   1.771       .  S
Cr1990     O1992   1.775       .  S
Cr1991     O1992   1.781       .  S
O1993     Cr2011   1.969       .  S
O1993      C2001   1.257       .  A
O1994     Cr2011   1.990       .  S
O1994      C1995   1.258       .  A
C1995      O1996   1.263       .  A
C1995      C2145   1.477       .  S
O1996     Cr2012   2.000       .  S
O1997     Cr2012   2.013       .  S
O1997      C1998   1.265       .  A
C1998      O1999   1.255       .  A
C1998      C2158   1.481       .  S
O1999     Cr2013   1.975       .  S
O2000     Cr2013   2.018       .  S
O2000      C2001   1.269       .  A
C2001      C2150   1.475       .  S
O2002     Cr2011   2.036       .  S
O2002      C2010   1.267       .  A
O2003     Cr2011   2.012       .  S
O2003      C2004   1.279       .  A
C2004      O2005   1.275       .  A
O2005     Cr2012   2.061       .  S
O2006     Cr2012   2.024       .  S
O2006      C2007   1.279       .  A
C2007      O2008   1.276       .  A
O2008     Cr2013   2.056       .  S
O2009     Cr2013   2.020       .  S
O2009      C2010   1.274       .  A
Cr2011     O2014   1.790       .  S
Cr2012     O2014   1.789       .  S
Cr2013     O2014   1.792       .  S
O2015     Cr2033   1.994       .  S
O2015      C2023   1.271       .  A
O2016     Cr2033   2.015       .  S
O2016      C2017   1.265       .  A
C2017      O2018   1.254       .  A
C2017      C2149   1.479       .  S
O2018     Cr2034   1.969       .  S
O2019     Cr2034   2.021       .  S
O2019      C2020   1.274       .  A
C2020      O2021   1.259       .  A
C2020      C2166   1.473       .  S
O2021     Cr2035   1.957       .  S
O2022     Cr2035   2.006       .  S
O2022      C2023   1.270       .  A
C2023      C2141   1.481       .  S
O2024     Cr2033   1.990       .  S
O2024      C2032   1.258       .  A
O2025     Cr2033   1.957       .  S
O2025      C2026   1.254       .  A
C2026      O2027   1.276       .  A
O2027     Cr2034   2.042       .  S
O2028     Cr2034   1.925       .  S
O2028      C2029   1.242       .  A
C2029      O2030   1.260       .  A
O2030     Cr2035   1.994       .  S
O2031     Cr2035   1.964       .  S
O2031      C2032   1.253       .  A
Cr2033     O2036   1.770       .  S
Cr2034     O2036   1.776       .  S
Cr2035     O2036   1.774       .  S
O2037     Cr2055   1.995       .  S
O2037      C2045   1.274       .  A
O2038     Cr2055   2.013       .  S
O2038      C2039   1.264       .  A
C2039      O2040   1.260       .  A
C2039      C2137   1.487       .  S
O2040     Cr2056   1.985       .  S
O2041     Cr2056   2.040       .  S
O2041      C2042   1.277       .  A
C2042      O2043   1.259       .  A
C2042      C2133   1.488       .  S
O2043     Cr2057   1.958       .  S
O2044     Cr2057   2.007       .  S
O2044      C2045   1.271       .  A
C2045      C2142   1.482       .  S
O2046     Cr2055   1.971       .  S
O2046      C2054   1.252       .  A
O2047     Cr2055   1.982       .  S
O2047      C2048   1.258       .  A
C2048      O2049   1.280       .  A
O2049     Cr2056   2.049       .  S
O2050     Cr2056   1.921       .  S
O2050      C2051   1.242       .  A
C2051      O2052   1.258       .  A
O2052     Cr2057   1.983       .  S
O2053     Cr2057   1.960       .  S
O2053      C2054   1.247       .  A
Cr2055     O2058   1.773       .  S
Cr2056     O2058   1.775       .  S
Cr2057     O2058   1.782       .  S
O2059     Cr2077   2.000       .  S
O2059      C2067   1.265       .  A
O2060     Cr2077   1.989       .  S
O2060      C2061   1.258       .  A
C2061      O2062   1.262       .  A
C2061      C2138   1.489       .  S
O2062     Cr2078   2.008       .  S
O2063     Cr2078   2.002       .  S
O2063      C2064   1.263       .  A
C2064      O2065   1.256       .  A
C2064      C2161   1.475       .  S
O2065     Cr2079   1.984       .  S
O2066     Cr2079   1.976       .  S
O2066      C2067   1.258       .  A
C2067      C2129   1.472       .  S
O2068     Cr2077   2.039       .  S
O2068      C2076   1.280       .  A
O2069     Cr2077   2.049       .  S
O2069      C2070   1.275       .  A
C2070      O2071   1.280       .  A
O2071     Cr2078   2.029       .  S
O2072     Cr2078   2.049       .  S
O2072      C2073   1.272       .  A
C2073      O2074   1.279       .  A
O2074     Cr2079   2.013       .  S
O2075     Cr2079   2.031       .  S
O2075      C2076   1.267       .  A
Cr2077     O2080   1.790       .  S
Cr2078     O2080   1.794       .  S
Cr2079     O2080   1.793       .  S
O2081     Cr2099   1.989       .  S
O2081      C2089   1.269       .  A
O2082     Cr2099   1.986       .  S
O2082      C2083   1.256       .  A
C2083      O2084   1.260       .  A
C2083      C2146   1.474       .  S
O2084     Cr2100   1.990       .  S
O2085     Cr2100   2.032       .  S
O2085      C2086   1.277       .  A
C2086      O2087   1.261       .  A
C2086      C2134   1.487       .  S
O2087     Cr2101   1.968       .  S
O2088     Cr2101   1.994       .  S
O2088      C2089   1.269       .  A
C2089      C2126   1.475       .  S
O2090     Cr2099   1.976       .  S
O2090      C2098   1.251       .  A
O2091     Cr2099   1.965       .  S
O2091      C2092   1.257       .  A
C2092      O2093   1.276       .  A
O2093     Cr2100   2.041       .  S
O2094     Cr2100   1.938       .  S
O2094      C2095   1.246       .  A
C2095      O2096   1.256       .  A
O2096     Cr2101   1.982       .  S
O2097     Cr2101   1.960       .  S
O2097      C2098   1.251       .  A
Cr2099     O2102   1.775       .  S
Cr2100     O2102   1.779       .  S
Cr2101     O2102   1.780       .  S
O2103     Cr2121   2.022       .  S
O2103      C2111   1.273       .  A
O2104     Cr2121   1.975       .  S
O2104      C2105   1.257       .  A
C2105      O2106   1.262       .  A
C2105      C2130   1.475       .  S
O2106     Cr2122   2.001       .  S
O2107     Cr2122   2.004       .  S
O2107      C2108   1.272       .  A
C2108      O2109   1.267       .  A
C2108      C2153   1.484       .  S
O2109     Cr2123   1.991       .  S
O2110     Cr2123   1.956       .  S
O2110      C2111   1.259       .  A
C2111      C2125   1.472       .  S
O2112     Cr2121   1.922       .  S
O2112      C2120   1.244       .  A
O2113     Cr2121   2.038       .  S
O2113      C2114   1.275       .  A
C2114      O2115   1.259       .  A
O2115     Cr2122   1.976       .  S
O2116     Cr2122   1.982       .  S
O2116      C2117   1.255       .  A
C2117      O2118   1.250       .  A
O2118     Cr2123   1.951       .  S
O2119     Cr2123   1.983       .  S
O2119      C2120   1.256       .  A
Cr2121     O2124   1.776       .  S
Cr2122     O2124   1.769       .  S
Cr2123     O2124   1.778       .  S
C2125      C2126   1.352       .  D
C2125      H2127   1.087       .  S
C2126      H2128   1.086       .  S
C2129      C2130   1.344       .  D
C2129      H2131   1.087       .  S
C2130      H2132   1.087       .  S
C2133      C2134   1.359       .  D
C2133      H2135   1.086       .  S
C2134      H2136   1.087       .  S
C2137      C2138   1.349       .  D
C2137      H2139   1.087       .  S
C2138      H2140   1.086       .  S
C2141      C2142   1.355       .  D
C2141      H2143   1.086       .  S
C2142      H2144   1.087       .  S
C2145      C2146   1.338       .  D
C2145      H2147   1.088       .  S
C2146      H2148   1.086       .  S
C2149      C2150   1.342       .  D
C2149      H2151   1.087       .  S
C2150      H2152   1.087       .  S
C2153      C2154   1.357       .  D
C2153      H2155   1.086       .  S
C2154      H2156   1.087       .  S
C2157      C2158   1.344       .  D
C2157      H2159   1.087       .  S
C2158      H2160   1.087       .  S
C2161      C2162   1.336       .  D
C2161      H2163   1.088       .  S
C2162      H2164   1.086       .  S
C2165      C2166   1.353       .  D
C2165      H2167   1.086       .  S
C2166      H2168   1.087       .  S
C2169      C2170   1.360       .  D
C2169      H2171   1.087       .  S
C2170      H2172   1.086       .  S
C2173      C2537   1.533       .  S
C2173      C2176   1.493       .  S
C2173      C2476   1.539       .  S
C2174      C2542   1.528       .  S
C2174      C2179   1.577       .  S
C2174      C2372   1.575       .  S
C2175      C2535   1.528       .  S
C2175      C2183   1.385       .  A
C2175      C2178   1.429       .  A
C2176      C2187   1.350       .  A
C2177      C2191   1.374       .  A
C2177      C2180   1.418       .  A
C2178      C2181   1.375       .  A
C2179      C2185   1.387       .  A
C2180      C2536   1.526   1_554  S
C2180      C2188   1.389       .  A
C2181      N2182   1.340       .  A
C2181      H2194   1.080       .  S
N2182      C2183   1.345       .  A
N2182      C2350   1.424       .  S
C2183      H2184   1.082       .  S
C2185      H2195   1.081       .  S
N2186      C2187   1.337       .  A
N2186      N2209   1.406       .  S
C2187      H2193   1.081       .  S
C2188      N2189   1.341       .  A
C2188      H2190   1.082       .  S
N2189      C2191   1.331       .  A
N2189      C2457   1.410       .  S
C2191      H2192   1.080       .  S
C2196      C2562   1.542       .  S
C2196      C2199   1.495       .  S
C2196      C2388   1.552       .  S
C2197      C2201   1.521   1_554  S
C2197      C2203   1.550   1_655  S
C2197      C2202   1.575       .  S
C2197      C2438   1.573       .  S
C2198      C2206   1.390   1_455  A
C2198      C2563   1.425   1_455  A
C2199      C2210   1.354       .  A
C2200      C2558   1.533       .  S
C2200      C2214   1.383   1_556  A
C2201      C2560   1.421   1_655  A
C2201      C2566   1.381       .  A
C2202      C2208   1.385       .  A
C2204      C2563   1.374       .  A
C2204      N2205   1.340       .  A
C2204      H2217   1.081       .  S
N2205      C2206   1.341       .  A
N2205      C2328   1.422       .  S
C2206      H2207   1.081       .  S
C2208      N2209   1.376       .  A
C2208      H2218   1.081       .  S
C2210      H2216   1.081       .  S
C2211      N2212   1.341       .  A
C2211      H2213   1.080       .  S
N2212      C2214   1.348       .  A
N2212      C2413   1.426       .  S
C2214      H2215   1.082       .  S
C2219      C2585   1.533       .  S
C2219      C2222   1.498       .  S
C2219      C2410   1.558       .  S
C2220      C2586   1.540       .  S
C2220      C2225   1.574       .  S
C2220      C2369   1.574       .  S
C2221      C2229   1.378       .  A
C2221      C2224   1.429       .  A
C2222      C2233   1.351       .  A
C2223      C2581   1.540       .  S
C2223      C2237   1.374       .  A
C2223      C2226   1.425       .  A
C2224      C2582   1.542   1_554  S
C2224      C2227   1.378       .  A
C2225      C2231   1.385       .  A
C2226      C2234   1.394       .  A
C2227      N2228   1.336       .  A
C2227      H2240   1.079       .  S
N2228      C2229   1.338       .  A
N2228      C2460   1.415       .  S
C2229      H2230   1.081       .  S
C2231      H2241   1.079       .  S
N2232      C2233   1.337       .  A
C2233      H2239   1.082       .  S
C2234      N2235   1.342       .  A
C2234      H2236   1.081       .  S
N2235      C2237   1.334       .  A
N2235      C2391   1.417       .  S
C2237      H2238   1.079       .  S
C2242      C2244   1.543   1_554  S
C2242      C2245   1.576       .  S
C2242      C2432   1.577       .  S
C2243      C2611   1.541       .  S
C2243      C2248   1.497       .  S
C2243      C2344   1.558       .  S
C2244      C2614   1.378       .  A
C2244      C2609   1.433   1_565  A
C2245      C2256   1.387       .  A
C2246      C2260   1.389       .  A
C2246      C2249   1.425   1_554  A
C2247      C2606   1.429   1_545  A
C2247      C2250   1.367   1_545  A
C2248      C2254   1.351       .  A
C2249      C2605   1.539       .  S
C2249      C2257   1.373   1_556  A
C2250      N2251   1.338       .  A
C2250      H2263   1.080       .  S
N2251      C2252   1.340       .  A
N2251      C2325   1.409       .  S
C2252      C2606   1.384       .  A
C2252      H2253   1.081       .  S
C2254      N2617   1.336       .  A
C2254      H2264   1.081       .  S
N2255      C2616   1.337   1_554  A
C2256      H2262   1.079       .  S
C2257      N2258   1.335       .  A
C2257      H2259   1.079       .  S
N2258      C2260   1.343       .  A
N2258      C2482   1.415       .  S
C2260      H2261   1.081       .  S
C2265      C2269   1.523   1_655  S
C2265      C2268   1.573       .  S
C2265      C2435   1.566       .  S
C2266      C2271   1.493       .  S
C2266      C2454   1.554       .  S
C2267      C2275   1.368       .  A
C2267      C2270   1.428   1_655  A
C2268      C2279   1.385       .  A
C2270      C2273   1.392   1_455  A
C2271      C2277   1.353       .  A
C2272      C2280   1.379   1_545  A
C2273      N2274   1.351       .  A
C2273      H2286   1.081       .  S
N2274      C2275   1.339       .  A
N2274      C2479   1.425       .  S
C2275      H2276   1.081       .  S
C2277      H2287   1.081       .  S
C2279      H2285   1.081       .  S
C2280      N2281   1.332       .  A
C2280      H2282   1.079       .  S
N2281      C2283   1.340       .  A
N2281      C2416   1.411       .  S
C2283      H2284   1.082       .  S
C2288      C2291   1.579       .  S
C2288      C2366   1.573       .  S
C2289      C2294   1.501       .  S
C2289      C2322   1.549       .  S
C2290      C2298   1.385       .  A
C2290      C2293   1.418       .  A
C2291      C2302   1.388       .  A
C2292      C2306   1.371       .  A
C2292      C2295   1.427       .  A
C2293      C2296   1.375       .  A
C2294      C2300   1.355       .  A
C2295      C2303   1.384       .  A
C2296      N2297   1.335       .  A
C2296      H2309   1.080       .  S
N2297      C2298   1.338       .  A
N2297      C2347   1.410       .  S
C2298      H2299   1.082       .  S
C2300      N2301   1.342       .  A
C2300      H2310   1.081       .  S
C2302      H2308   1.081       .  S
C2303      N2304   1.341       .  A
C2303      H2305   1.081       .  S
N2304      C2306   1.338       .  A
N2304      C2394   1.414       .  S
C2306      H2307   1.080       .  S
O2311     Cr2329   2.005       .  S
O2311      C2319   1.273       .  A
O2312     Cr2329   2.036       .  S
O2312      C2313   1.272       .  A
C2313      O2314   1.251       .  A
C2313      C2524   1.479       .  S
O2314     Cr2330   1.959       .  S
O2315     Cr2330   2.025       .  S
O2315      C2316   1.273       .  A
C2316      O2317   1.256       .  A
C2316      C2527   1.468       .  S
O2317     Cr2331   1.948       .  S
O2318     Cr2331   1.999       .  S
O2318      C2319   1.267       .  A
C2319      C2531   1.485       .  S
O2320     Cr2329   1.993       .  S
O2320      C2328   1.263       .  A
O2321     Cr2329   1.977       .  S
O2321      C2322   1.256       .  A
C2322      O2323   1.278       .  A
O2323     Cr2330   2.049       .  S
O2324     Cr2330   1.913       .  S
O2324      C2325   1.241       .  A
C2325      O2326   1.260       .  A
O2326     Cr2331   1.993       .  S
O2327     Cr2331   1.942       .  S
O2327      C2328   1.248       .  A
Cr2329     O2332   1.768       .  S
Cr2330     O2332   1.766       .  S
Cr2331     O2332   1.777       .  S
O2333     Cr2351   2.008       .  S
O2333      C2341   1.274       .  A
O2334     Cr2351   2.026       .  S
O2334      C2335   1.268       .  A
C2335      O2336   1.256       .  A
C2335      C2519   1.488       .  S
O2336     Cr2352   1.972       .  S
O2337     Cr2352   2.024       .  S
O2337      C2338   1.275       .  A
C2338      O2339   1.259       .  A
C2338      C2516   1.473       .  S
O2339     Cr2353   1.958       .  S
O2340     Cr2353   1.994       .  S
O2340      C2341   1.266       .  A
C2341      C2532   1.486       .  S
O2342     Cr2351   1.989       .  S
O2342      C2350   1.259       .  A
O2343     Cr2351   1.975       .  S
O2343      C2344   1.257       .  A
C2344      O2345   1.275       .  A
O2345     Cr2352   2.043       .  S
O2346     Cr2352   1.913       .  S
O2346      C2347   1.240       .  A
C2347      O2348   1.255       .  A
O2348     Cr2353   1.983       .  S
O2349     Cr2353   1.954       .  S
O2349      C2350   1.251       .  A
Cr2351     O2354   1.770       .  S
Cr2352     O2354   1.777       .  S
Cr2353     O2354   1.782       .  S
O2355     Cr2373   1.963       .  S
O2355      C2363   1.255       .  A
O2356     Cr2373   1.995       .  S
O2356      C2357   1.260       .  A
C2357      O2358   1.262       .  A
C2357      C2507   1.476       .  S
O2358     Cr2374   1.994       .  S
O2359     Cr2374   2.019       .  S
O2359      C2360   1.266       .  A
C2360      O2361   1.255       .  A
C2360      C2520   1.487       .  S
O2361     Cr2375   1.978       .  S
O2362     Cr2375   2.011       .  S
O2362      C2363   1.268       .  A
C2363      C2512   1.469       .  S
O2364     Cr2373   2.041       .  S
O2364      C2372   1.269       .  A
O2365     Cr2373   2.010       .  S
O2365      C2366   1.278       .  A
C2366      O2367   1.275       .  A
O2367     Cr2374   2.062       .  S
O2368     Cr2374   2.028       .  S
O2368      C2369   1.279       .  A
C2369      O2370   1.275       .  A
O2370     Cr2375   2.047       .  S
O2371     Cr2375   2.028       .  S
O2371      C2372   1.275       .  A
Cr2373     O2376   1.790       .  S
Cr2374     O2376   1.794       .  S
Cr2375     O2376   1.792       .  S
O2377     Cr2395   2.009       .  S
O2377      C2385   1.275       .  A
O2378     Cr2395   2.012       .  S
O2378      C2379   1.265       .  A
C2379      O2380   1.253       .  A
C2379      C2511   1.473       .  S
O2380     Cr2396   1.964       .  S
O2381     Cr2396   2.024       .  S
O2381      C2382   1.272       .  A
C2382      O2383   1.255       .  A
C2382      C2528   1.472       .  S
O2383     Cr2397   1.945       .  S
O2384     Cr2397   2.002       .  S
O2384      C2385   1.270       .  A
C2385      C2503   1.490       .  S
O2386     Cr2395   1.980       .  S
O2386      C2394   1.255       .  A
O2387     Cr2395   1.991       .  S
O2387      C2388   1.262       .  A
C2388      O2389   1.277       .  A
O2389     Cr2396   2.044       .  S
O2390     Cr2396   1.910       .  S
O2390      C2391   1.243       .  A
C2391      O2392   1.261       .  A
O2392     Cr2397   1.996       .  S
O2393     Cr2397   1.932       .  S
O2393      C2394   1.244       .  A
Cr2395     O2398   1.772       .  S
Cr2396     O2398   1.774       .  S
Cr2397     O2398   1.781       .  S
O2399     Cr2417   2.036       .  S
O2399      C2407   1.278       .  A
O2400     Cr2417   2.005       .  S
O2400      C2401   1.266       .  A
C2401      O2402   1.259       .  A
C2401      C2499   1.489       .  S
O2402     Cr2418   1.995       .  S
O2403     Cr2418   1.999       .  S
O2403      C2404   1.272       .  A
C2404      O2405   1.268       .  A
C2404      C2495   1.481       .  S
O2405     Cr2419   1.996       .  S
O2406     Cr2419   1.968       .  S
O2406      C2407   1.261       .  A
C2407      C2504   1.488       .  S
O2408     Cr2417   1.931       .  S
O2408      C2416   1.246       .  A
O2409     Cr2417   2.044       .  S
O2409      C2410   1.277       .  A
C2410      O2411   1.262       .  A
O2411     Cr2418   1.985       .  S
O2412     Cr2418   1.975       .  S
O2412      C2413   1.252       .  A
C2413      O2414   1.251       .  A
O2414     Cr2419   1.977       .  S
O2415     Cr2419   1.967       .  S
O2415      C2416   1.253       .  A
Cr2417     O2420   1.780       .  S
Cr2418     O2420   1.768       .  S
Cr2419     O2420   1.784       .  S
O2421     Cr2439   2.001       .  S
O2421      C2429   1.265       .  A
O2422     Cr2439   2.020       .  S
O2422      C2423   1.265       .  A
C2423      O2424   1.254       .  A
C2423      C2500   1.489       .  S
O2424     Cr2440   1.979       .  S
O2425     Cr2440   2.011       .  S
O2425      C2426   1.266       .  A
C2426      O2427   1.256       .  A
C2426      C2523   1.477       .  S
O2427     Cr2441   1.985       .  S
O2428     Cr2441   1.982       .  S
O2428      C2429   1.260       .  A
C2429      C2491   1.479       .  S
O2430     Cr2439   2.049       .  S
O2430      C2438   1.280       .  A
O2431     Cr2439   2.045       .  S
O2431      C2432   1.274       .  A
C2432      O2433   1.285       .  A
O2433     Cr2440   2.035       .  S
O2434     Cr2440   2.030       .  S
O2434      C2435   1.267       .  A
C2435      O2436   1.279       .  A
O2436     Cr2441   2.029       .  S
O2437     Cr2441   2.018       .  S
O2437      C2438   1.264       .  A
Cr2439     O2442   1.798       .  S
Cr2440     O2442   1.787       .  S
Cr2441     O2442   1.798       .  S
O2443     Cr2461   1.994       .  S
O2443      C2451   1.269       .  A
O2444     Cr2461   1.993       .  S
O2444      C2445   1.260       .  A
C2445      O2446   1.262       .  A
C2445      C2508   1.474       .  S
O2446     Cr2462   1.984       .  S
O2447     Cr2462   2.039       .  S
O2447      C2448   1.278       .  A
C2448      O2449   1.258       .  A
C2448      C2496   1.480       .  S
O2449     Cr2463   1.951       .  S
O2450     Cr2463   1.995       .  S
O2450      C2451   1.268       .  A
C2451      C2488   1.476       .  S
O2452     Cr2461   1.966       .  S
O2452      C2460   1.254       .  A
O2453     Cr2461   1.984       .  S
O2453      C2454   1.260       .  A
C2454      O2455   1.278       .  A
O2455     Cr2462   2.046       .  S
O2456     Cr2462   1.919       .  S
O2456      C2457   1.244       .  A
C2457      O2458   1.255       .  A
O2458     Cr2463   1.978       .  S
O2459     Cr2463   1.954       .  S
O2459      C2460   1.246       .  A
Cr2461     O2464   1.769       .  S
Cr2462     O2464   1.771       .  S
Cr2463     O2464   1.785       .  S
O2465     Cr2483   2.017       .  S
O2465      C2473   1.272       .  A
O2466     Cr2483   1.974       .  S
O2466      C2467   1.257       .  A
C2467      O2468   1.265       .  A
C2467      C2492   1.480       .  S
O2468     Cr2484   2.013       .  S
O2469     Cr2484   1.996       .  S
O2469      C2470   1.271       .  A
C2470      O2471   1.268       .  A
C2470      C2515   1.479       .  S
O2471     Cr2485   1.988       .  S
O2472     Cr2485   1.959       .  S
O2472      C2473   1.259       .  A
C2473      C2487   1.473       .  S
O2474     Cr2483   1.922       .  S
O2474      C2482   1.244       .  A
O2475     Cr2483   2.027       .  S
O2475      C2476   1.272       .  A
C2476      O2477   1.255       .  A
O2477     Cr2484   1.965       .  S
O2478     Cr2484   1.993       .  S
O2478      C2479   1.256       .  A
C2479      O2480   1.250       .  A
O2480     Cr2485   1.949       .  S
O2481     Cr2485   1.988       .  S
O2481      C2482   1.258       .  A
Cr2483     O2486   1.776       .  S
Cr2484     O2486   1.772       .  S
Cr2485     O2486   1.774       .  S
C2487      C2488   1.352       .  D
C2487      H2489   1.087       .  S
C2488      H2490   1.086       .  S
C2491      C2492   1.346       .  D
C2491      H2493   1.087       .  S
C2492      H2494   1.087       .  S
C2495      C2496   1.357       .  D
C2495      H2497   1.086       .  S
C2496      H2498   1.086       .  S
C2499      C2500   1.341       .  D
C2499      H2501   1.087       .  S
C2500      H2502   1.087       .  S
C2503      C2504   1.360       .  D
C2503      H2505   1.086       .  S
C2504      H2506   1.087       .  S
C2507      C2508   1.339       .  D
C2507      H2509   1.088       .  S
C2508      H2510   1.087       .  S
C2511      C2512   1.339       .  D
C2511      H2513   1.087       .  S
C2512      H2514   1.087       .  S
C2515      C2516   1.354       .  D
C2515      H2517   1.086       .  S
C2516      H2518   1.087       .  S
C2519      C2520   1.345       .  D
C2519      H2521   1.087       .  S
C2520      H2522   1.087       .  S
C2523      C2524   1.339       .  D
C2523      H2525   1.087       .  S
C2524      H2526   1.087       .  S
C2527      C2528   1.352       .  D
C2527      H2529   1.087       .  S
C2528      H2530   1.087       .  S
C2531      C2532   1.359       .  D
C2531      H2533   1.087       .  S
C2532      H2534   1.086       .  S
C2535      C2538   1.495       .  S
C2535      C2838   1.543       .  S
C2536      C2541   1.574       .  S
C2536      C2734   1.573       .  S
C2537      C2545   1.391   1_554  A
C2537      C2540   1.426   1_554  A
C2538      C2549   1.352       .  A
C2539      C2553   1.376       .  A
C2539      C2542   1.420       .  A
C2540      C2543   1.373       .  A
C2541      C2547   1.385       .  A
C2542      C2550   1.387       .  A
C2543      N2544   1.337       .  A
C2543      H2556   1.080       .  S
N2544      C2545   1.347       .  A
N2544      C2712   1.425       .  S
C2545      H2546   1.081   1_556  S
C2547      H2557   1.081       .  S
N2548      C2549   1.338       .  A
N2548      N2571   1.407       .  S
C2549      H2555   1.081       .  S
C2550      N2551   1.343       .  A
C2550      H2552   1.082       .  S
N2551      C2553   1.334       .  A
N2551      C2819   1.413       .  S
C2553      H2554   1.080       .  S
C2558      C2561   1.501       .  S
C2558      C2750   1.555       .  S
C2559      C2563   1.530       .  S
C2559      C2565   1.537   1_655  S
C2559      C2564   1.580       .  S
C2559      C2800   1.585       .  S
C2560      C2568   1.375   1_455  A
C2561      C2572   1.355       .  A
C2562      C2576   1.390       .  A
C2564      C2570   1.388       .  A
C2566      N2567   1.341       .  A
C2566      H2579   1.082       .  S
N2567      C2568   1.335       .  A
N2567      C2690   1.409       .  S
C2568      H2569   1.080       .  S
C2570      N2571   1.378       .  A
C2570      H2580   1.081       .  S
C2572      H2578   1.081       .  S
C2573      N2574   1.334       .  A
C2573      H2575   1.079       .  S
N2574      C2576   1.351       .  A
N2574      C2775   1.424       .  S
C2576      H2577   1.082       .  S
C2581      C2584   1.495       .  S
C2581      C2772   1.551       .  S
C2582      C2587   1.576   1_556  S
C2582      C2731   1.583       .  S
C2583      C2591   1.378       .  A
C2583      C2586   1.428       .  A
C2584      C2595   1.349       .  A
C2585      C2599   1.369   1_554  A
C2585      C2588   1.420   1_554  A
C2586      C2589   1.379       .  A
C2587      C2593   1.387   1_554  A
C2588      C2596   1.385       .  A
C2589      N2590   1.336       .  A
C2589      H2602   1.079       .  S
N2590      C2591   1.338       .  A
N2590      C2822   1.415       .  S
C2591      H2592   1.081       .  S
C2593      H2603   1.080       .  S
N2594      C2595   1.337       .  A
C2595      H2601   1.082       .  S
C2596      N2597   1.336       .  A
C2596      H2598   1.081       .  S
N2597      C2599   1.334       .  A
N2597      C2753   1.404       .  S
C2599      H2600   1.080   1_556  S
C2604      C2606   1.540       .  S
C2604      C2607   1.569       .  S
C2604      C2794   1.585       .  S
C2605      C2610   1.496       .  S
C2605      C2706   1.555       .  S
C2607      C2618   1.382       .  A
C2608      C2622   1.382       .  A
C2608      C2611   1.421       .  A
C2609      C2612   1.383   1_545  A
C2610      C2616   1.350       .  A
C2611      C2619   1.374       .  A
C2612      N2613   1.348       .  A
C2612      H2625   1.082       .  S
N2613      C2614   1.340       .  A
N2613      C2687   1.425       .  S
C2614      H2615   1.081       .  S
C2616      H2626   1.082       .  S
C2618      H2624   1.079       .  S
C2619      N2620   1.334       .  A
C2619      H2621   1.079       .  S
N2620      C2622   1.337       .  A
N2620      C2844   1.406       .  S
C2622      H2623   1.081       .  S
C2627      C2631   1.528   1_655  S
C2627      C2630   1.574       .  S
C2627      C2797   1.561       .  S
C2628      C2633   1.490       .  S
C2628      C2816   1.542       .  S
C2629      C2637   1.374       .  A
C2629      C2632   1.430   1_655  A
C2630      C2641   1.387       .  A
C2632      C2635   1.388   1_455  A
C2633      C2639   1.351       .  A
C2634      C2642   1.381   1_545  A
C2635      N2636   1.348       .  A
C2635      H2648   1.082       .  S
N2636      C2637   1.341       .  A
N2636      C2841   1.426       .  S
C2637      H2638   1.081       .  S
C2639      H2649   1.081       .  S
C2641      H2647   1.081       .  S
C2642      N2643   1.334       .  A
C2642      H2644   1.079       .  S
N2643      C2645   1.340       .  A
N2643      C2778   1.415       .  S
C2645      H2646   1.082       .  S
C2650      C2653   1.579       .  S
C2650      C2728   1.564       .  S
C2651      C2656   1.504       .  S
C2651      C2684   1.555       .  S
C2652      C2660   1.389       .  A
C2652      C2655   1.425       .  A
C2653      C2664   1.388       .  A
C2654      C2668   1.374       .  A
C2654      C2657   1.431       .  A
C2655      C2658   1.374       .  A
C2656      C2662   1.356       .  A
C2657      C2665   1.391       .  A
C2658      N2659   1.332       .  A
C2658      H2671   1.079       .  S
N2659      C2660   1.337       .  A
N2659      C2709   1.410       .  S
C2660      H2661   1.079       .  S
C2662      N2663   1.341       .  A
C2662      H2672   1.081       .  S
C2664      H2670   1.081       .  S
C2665      N2666   1.350       .  A
C2665      H2667   1.082       .  S
N2666      C2668   1.342       .  A
N2666      C2756   1.430       .  S
C2668      H2669   1.081       .  S
O2673     Cr2691   2.038       .  S
O2673      C2681   1.279       .  A
O2674     Cr2691   1.985       .  S
O2674      C2675   1.261       .  A
C2675      O2676   1.258       .  A
C2675      C2886   1.478       .  S
O2676     Cr2692   1.994       .  S
O2677     Cr2692   2.005       .  S
O2677      C2678   1.274       .  A
C2678      O2679   1.269       .  A
C2678      C2889   1.485       .  S
O2679     Cr2693   1.996       .  S
O2680     Cr2693   1.967       .  S
O2680      C2681   1.261       .  A
C2681      C2893   1.488       .  S
O2682     Cr2691   1.923       .  S
O2682      C2690   1.244       .  A
O2683     Cr2691   2.051       .  S
O2683      C2684   1.278       .  A
C2684      O2685   1.261       .  A
O2685     Cr2692   1.982       .  S
O2686     Cr2692   1.974       .  S
O2686      C2687   1.252       .  A
C2687      O2688   1.252       .  A
O2688     Cr2693   1.976       .  S
O2689     Cr2693   1.972       .  S
O2689      C2690   1.253       .  A
Cr2691     O2694   1.778       .  S
Cr2692     O2694   1.768       .  S
Cr2693     O2694   1.782       .  S
O2695     Cr2713   2.009       .  S
O2695      C2703   1.275       .  A
O2696     Cr2713   2.021       .  S
O2696      C2697   1.267       .  A
C2697      O2698   1.255       .  A
C2697      C2881   1.482       .  S
O2698     Cr2714   1.968       .  S
O2699     Cr2714   2.023       .  S
O2699      C2700   1.273       .  A
C2700      O2701   1.260       .  A
C2700      C2878   1.478       .  S
O2701     Cr2715   1.964       .  S
O2702     Cr2715   1.998       .  S
O2702      C2703   1.268       .  A
C2703      C2894   1.490       .  S
O2704     Cr2713   1.988       .  S
O2704      C2712   1.256       .  A
O2705     Cr2713   1.982       .  S
O2705      C2706   1.258       .  A
C2706      O2707   1.275       .  A
O2707     Cr2714   2.039       .  S
O2708     Cr2714   1.911       .  S
O2708      C2709   1.241       .  A
C2709      O2710   1.257       .  A
O2710     Cr2715   1.986       .  S
O2711     Cr2715   1.950       .  S
O2711      C2712   1.250       .  A
Cr2713     O2716   1.773       .  S
Cr2714     O2716   1.777       .  S
Cr2715     O2716   1.780       .  S
O2717     Cr2735   1.962       .  S
O2717      C2725   1.255       .  A
O2718     Cr2735   1.993       .  S
O2718      C2719   1.260       .  A
C2719      O2720   1.263       .  A
C2719      C2869   1.478       .  S
O2720     Cr2736   1.999       .  S
O2721     Cr2736   2.013       .  S
O2721      C2722   1.265       .  A
C2722      O2723   1.254       .  A
C2722      C2882   1.479       .  S
O2723     Cr2737   1.972       .  S
O2724     Cr2737   2.018       .  S
O2724      C2725   1.269       .  A
C2725      C2874   1.471       .  S
O2726     Cr2735   2.043       .  S
O2726      C2734   1.269       .  A
O2727     Cr2735   2.002       .  S
O2727      C2728   1.276       .  A
C2728      O2729   1.274       .  A
O2729     Cr2736   2.054       .  S
O2730     Cr2736   2.035       .  S
O2730      C2731   1.279       .  A
C2731      O2732   1.277       .  A
O2732     Cr2737   2.055       .  S
O2733     Cr2737   2.022       .  S
O2733      C2734   1.274       .  A
Cr2735     O2738   1.792       .  S
Cr2736     O2738   1.796       .  S
Cr2737     O2738   1.789       .  S
O2739     Cr2757   2.004       .  S
O2739      C2747   1.273       .  A
O2740     Cr2757   2.016       .  S
O2740      C2741   1.266       .  A
C2741      O2742   1.253       .  A
C2741      C2873   1.475       .  S
O2742     Cr2758   1.961       .  S
O2743     Cr2758   2.029       .  S
O2743      C2744   1.275       .  A
C2744      O2745   1.259       .  A
C2744      C2890   1.480       .  S
O2745     Cr2759   1.964       .  S
O2746     Cr2759   1.999       .  S
O2746      C2747   1.269       .  A
C2747      C2865   1.487       .  S
O2748     Cr2757   1.991       .  S
O2748      C2756   1.258       .  A
O2749     Cr2757   1.973       .  S
O2749      C2750   1.256       .  A
C2750      O2751   1.277       .  A
O2751     Cr2758   2.053       .  S
O2752     Cr2758   1.897       .  S
O2752      C2753   1.240       .  A
C2753      O2754   1.257       .  A
O2754     Cr2759   1.987       .  S
O2755     Cr2759   1.959       .  S
O2755      C2756   1.251       .  A
Cr2757     O2760   1.769       .  S
Cr2758     O2760   1.774       .  S
Cr2759     O2760   1.780       .  S
O2761     Cr2779   2.032       .  S
O2761      C2769   1.277       .  A
O2762     Cr2779   2.008       .  S
O2762      C2763   1.265       .  A
C2763      O2764   1.255       .  A
C2763      C2861   1.486       .  S
O2764     Cr2780   1.984       .  S
O2765     Cr2780   1.998       .  S
O2765      C2766   1.274       .  A
C2766      O2767   1.270       .  A
C2766      C2857   1.479       .  S
O2767     Cr2781   1.995       .  S
O2768     Cr2781   1.966       .  S
O2768      C2769   1.261       .  A
C2769      C2866   1.485       .  S
O2770     Cr2779   1.933       .  S
O2770      C2778   1.247       .  A
O2771     Cr2779   2.043       .  S
O2771      C2772   1.278       .  A
C2772      O2773   1.261       .  A
O2773     Cr2780   1.980       .  S
O2774     Cr2780   1.968       .  S
O2774      C2775   1.247       .  A
C2775      O2776   1.250       .  A
O2776     Cr2781   1.970       .  S
O2777     Cr2781   1.972       .  S
O2777      C2778   1.254       .  A
Cr2779     O2782   1.778       .  S
Cr2780     O2782   1.770       .  S
Cr2781     O2782   1.781       .  S
O2783     Cr2801   1.998       .  S
O2783      C2791   1.261       .  A
O2784     Cr2801   2.034       .  S
O2784      C2785   1.271       .  A
C2785      O2786   1.252       .  A
C2785      C2862   1.489       .  S
O2786     Cr2802   1.966       .  S
O2787     Cr2802   2.021       .  S
O2787      C2788   1.271       .  A
C2788      O2789   1.258       .  A
C2788      C2885   1.480       .  S
O2789     Cr2803   1.974       .  S
O2790     Cr2803   1.986       .  S
O2790      C2791   1.255       .  A
C2791      C2853   1.471       .  S
O2792     Cr2801   2.083       .  S
O2792      C2800   1.284       .  A
O2793     Cr2801   2.029       .  S
O2793      C2794   1.279       .  A
C2794      O2795   1.277       .  A
O2795     Cr2802   2.063       .  S
O2796     Cr2802   2.009       .  S
O2796      C2797   1.271       .  A
C2797      O2798   1.266       .  A
O2798     Cr2803   2.035       .  S
O2799     Cr2803   2.013       .  S
O2799      C2800   1.279       .  A
Cr2801     O2804   1.782       .  S
Cr2802     O2804   1.786       .  S
Cr2803     O2804   1.789       .  S
O2805     Cr2823   1.983       .  S
O2805      C2813   1.266       .  A
O2806     Cr2823   1.996       .  S
O2806      C2807   1.260       .  A
C2807      O2808   1.262       .  A
C2807      C2870   1.478       .  S
O2808     Cr2824   1.987       .  S
O2809     Cr2824   2.034       .  S
O2809      C2810   1.277       .  A
C2810      O2811   1.258       .  A
C2810      C2858   1.477       .  S
O2811     Cr2825   1.952       .  S
O2812     Cr2825   1.992       .  S
O2812      C2813   1.268       .  A
C2813      C2850   1.469       .  S
O2814     Cr2823   1.970       .  S
O2814      C2822   1.254       .  A
O2815     Cr2823   1.971       .  S
O2815      C2816   1.257       .  A
C2816      O2817   1.277       .  A
O2817     Cr2824   2.041       .  S
O2818     Cr2824   1.928       .  S
O2818      C2819   1.246       .  A
C2819      O2820   1.256       .  A
O2820     Cr2825   1.979       .  S
O2821     Cr2825   1.957       .  S
O2821      C2822   1.247       .  A
Cr2823     O2826   1.767       .  S
Cr2824     O2826   1.769       .  S
Cr2825     O2826   1.781       .  S
O2827     Cr2845   2.010       .  S
O2827      C2835   1.270       .  A
O2828     Cr2845   1.963       .  S
O2828      C2829   1.251       .  A
C2829      O2830   1.267       .  A
C2829      C2854   1.473       .  S
O2830     Cr2846   2.015       .  S
O2831     Cr2846   1.995       .  S
O2831      C2832   1.270       .  A
C2832      O2833   1.268       .  A
C2832      C2877   1.481       .  S
O2833     Cr2847   1.997       .  S
O2834     Cr2847   1.955       .  S
O2834      C2835   1.259       .  A
C2835      C2849   1.464       .  S
O2836     Cr2845   1.909       .  S
O2836      C2844   1.242       .  A
O2837     Cr2845   2.040       .  S
O2837      C2838   1.275       .  A
C2838      O2839   1.253       .  A
O2839     Cr2846   1.959       .  S
O2840     Cr2846   1.991       .  S
O2840      C2841   1.260       .  A
C2841      O2842   1.252       .  A
O2842     Cr2847   1.956       .  S
O2843     Cr2847   1.986       .  S
O2843      C2844   1.258       .  A
Cr2845     O2848   1.771       .  S
Cr2846     O2848   1.764       .  S
Cr2847     O2848   1.772       .  S
C2849      C2850   1.347       .  D
C2849      H2851   1.087       .  S
C2850      H2852   1.087       .  S
C2853      C2854   1.338       .  D
C2853      H2855   1.087       .  S
C2854      H2856   1.087       .  S
C2857      C2858   1.357       .  D
C2857      H2859   1.086       .  S
C2858      H2860   1.087       .  S
C2861      C2862   1.339       .  D
C2861      H2863   1.087       .  S
C2862      H2864   1.087       .  S
C2865      C2866   1.358       .  D
C2865      H2867   1.086       .  S
C2866      H2868   1.087       .  S
C2869      C2870   1.340       .  D
C2869      H2871   1.087       .  S
C2870      H2872   1.087       .  S
C2873      C2874   1.339       .  D
C2873      H2875   1.087       .  S
C2874      H2876   1.087       .  S
C2877      C2878   1.353       .  D
C2877      H2879   1.086       .  S
C2878      H2880   1.087       .  S
C2881      C2882   1.342       .  D
C2881      H2883   1.087       .  S
C2882      H2884   1.087       .  S
C2885      C2886   1.342       .  D
C2885      H2887   1.087       .  S
C2886      H2888   1.087       .  S
C2889      C2890   1.357       .  D
C2889      H2891   1.086       .  S
C2890      H2892   1.087       .  S
C2893      C2894   1.360       .  D
C2893      H2895   1.087       .  S
C2894      H2896   1.086       .  S
