geometry optimzed in LAMMPS
_audit_creation_date              2020-12-01 
_audit_creation_method            'lammps2cif' 
_symmetry_space_group_name_H-M    'P1' 
_symmetry_Int_Tables_number       1 
_symmetry_cell_setting            triclinic 
loop_ 
_symmetry_equiv_pos_as_xyz 
  x,y,z 
_cell_length_a                    28.82118916 
_cell_length_b                    29.12086673866454 
_cell_length_c                    29.452187553838634 
_cell_angle_alpha                 88.91898970554517 
_cell_angle_beta                  90.11438512268626 
_cell_angle_gamma                 92.08185407196811 
loop_ 
_atom_site_label 
_atom_site_type_symbol 
_atom_site_fract_x 
_atom_site_fract_y 
_atom_site_fract_z 
_atom_site_charge 
N1          N  0.13699356  0.34040364  0.10445269    -0.00900
C2          C  0.09320514  0.32267220  0.11181926     0.01600
C3          C  0.07218223  0.30920129  0.07166753    -0.21200
C4          C  0.10665882  0.30686670  0.04108644    -0.21400
C5          C  0.14650975  0.31858344  0.06448256     0.01500
H6          H  0.03942463  0.29073453  0.06784842     0.15300
H7          H  0.10431918  0.28691492  0.01042617     0.15400
N8          N  0.14234927  0.39010436  0.10646229    -0.00900
C9          C  0.18295409  0.41085501  0.12013820     0.01600
C10         C  0.20645969  0.43020681  0.08302966    -0.21200
C11         C  0.17336056  0.43641086  0.05075532    -0.21400
C12         C  0.13318052  0.41705325  0.06918767     0.01500
H13         H  0.23832167  0.45102993  0.08435453     0.15300
H14         H  0.17596377  0.46156589  0.02323587     0.15400
Zn15       Zn  0.23250937  0.43098677  0.22949715     1.49700
Zn16       Zn  0.22326261  0.48788384  0.30807774     1.49400
Zn17       Zn  0.31889181  0.48932033  0.25248239     1.49100
Zn18       Zn  0.21070284  0.99044140  0.20991217     1.49500
O19         O  0.25150480  0.48700874  0.25116101    -1.81600
O20         O  0.22702394  0.38285566  0.27703776    -0.72200
O21         O  0.26591353  0.52980112  0.34111220    -0.72000
O22         O  0.33447967  0.42251126  0.23274422    -0.71600
O23         O  0.20336752  0.42469423  0.33418859    -0.72200
O24         O  0.27882260  0.42802486  0.18174556    -0.71800
O25         O  0.33542090  0.53273047  0.30764216    -0.72400
O26         O  0.26556170  0.01825378  0.17274667    -0.71800
O27         O  0.15184953  0.99917299  0.30579880    -0.72600
O28         O  0.32996408  0.98978287  0.20138148    -0.72000
O29         O  0.18289564  0.04152042  0.25051060    -0.72400
O30         O  0.20011969  0.48298030  0.15775791    -0.72300
O31         O  0.17321511  0.42445639  0.19885071    -0.72100
C32         C  0.20721832  0.38595065  0.31532752     0.79700
C33         C  0.29663292  0.01322229  0.33834615     0.80200
C34         C  0.31308131  0.40771398  0.19692376     0.79100
C35         C  0.30952752  0.01288697  0.17096992     0.79500
C36         C  0.16418716  0.03821847  0.29019911     0.80600
C37         C  0.18316611  0.44148950  0.16050343     0.79700
N38         N  0.38225620  0.09042695  0.38128706    -0.00900
C39         C  0.42360887  0.09345980  0.35983652     0.01600
C40         C  0.45865187  0.10039806  0.39152492    -0.21200
C41         C  0.43763789  0.11743153  0.42880081    -0.21400
C42         C  0.39070025  0.11561469  0.41942081     0.01500
H43         H  0.49494686  0.10768238  0.38367510     0.15300
H44         H  0.45528187  0.13860633  0.45356045     0.15400
N45         N  0.36069659  0.04538133  0.38467052    -0.00900
C46         C  0.31480195  0.04190222  0.37586335     0.01600
C47         C  0.28793098  0.58932000  0.40394423    -0.21200
C48         C  0.31080353  0.57196082  0.44080278    -0.21400
C49         C  0.36358086  0.02044899  0.42421765     0.01500
H50         H  0.25103578  0.58755255  0.40004971     0.15300
H51         H  0.29464161  0.55524752  0.47005264     0.15400
N52         N  0.34339978  0.07209549  0.11804443    -0.00900
C53         C  0.33453005  0.02668080  0.12815356     0.01600
C54         C  0.30978198  0.00717229  0.09232991    -0.21200
C55         C  0.28936213  0.04210542  0.06977843    -0.21400
C56         C  0.30785676  0.08140114  0.08827536     0.01500
H57         H  0.29614166  0.97239866  0.09075548     0.15300
H58         H  0.26269059  0.03915357  0.04393505     0.15400
N59         N  0.39044314  0.09000929  0.11158617    -0.00900
C60         C  0.40223817  0.13485454  0.12093561     0.01600
C61         C  0.42431334  0.15638176  0.08428604    -0.21200
C62         C  0.43494825  0.12307882  0.05538177    -0.21400
C63         C  0.41532596  0.08297813  0.07251244     0.01500
H64         H  0.96916166  0.20434188  0.08705133     0.15300
H65         H  0.98156547  0.13638757  0.03528660     0.15400
Zn66       Zn  0.46295696  0.23751099  0.19666841     1.49700
Zn67       Zn  0.49077933  0.14935942  0.24446240     1.49400
Zn68       Zn  0.08318295  0.25304709  0.24746476     1.49100
Zn69       Zn  0.44256666  0.22917869  0.29552931     1.49500
O70         O  0.01924506  0.23282085  0.24989996    -1.81600
O71         O  0.41608987  0.19230193  0.17306916    -0.72200
O72         O  0.06836617  0.14079957  0.28266768    -0.72000
O73         O  0.10456419  0.28514218  0.18582981    -0.71600
O74         O  0.45776401  0.12987846  0.18291432    -0.72200
O75         O  0.03469623  0.28617991  0.15459484    -0.71800
O76         O  0.11608391  0.20305837  0.28077381    -0.72400
O77         O  0.48308994  0.26362500  0.34339612    -0.71800
O78         O  0.45285856  0.11346748  0.28814628    -0.72600
O79         O  0.09384307  0.30144219  0.29038305    -0.72000
O80         O  0.42117046  0.16867899  0.32745904    -0.72400
O81         O  0.38945569  0.26084296  0.25875418    -0.72300
O82         O  0.43405010  0.29458625  0.20669996    -0.72100
C83         C  0.42410736  0.15100264  0.16356384     0.79700
C84         C  0.10547256  0.16253060  0.29588536     0.80200
C85         C  0.07745733  0.29738214  0.15355470     0.79100
C86         C  0.07090389  0.31758601  0.32234584     0.79500
C87         C  0.43007964  0.12636953  0.32174742     0.80600
C88         C  0.39441204  0.28611694  0.22265534     0.79700
N89         N  0.16999724  0.33901792  0.37927918    -0.00900
C90         C  0.18554211  0.29676022  0.39138092     0.01600
C91         C  0.18795725  0.27018439  0.35294731    -0.21200
C92         C  0.19447788  0.30083297  0.31794887    -0.21400
C93         C  0.18840826  0.34314937  0.33666282     0.01500
H94         H  0.20064187  0.23586386  0.35219072     0.15300
H95         H  0.20890476  0.29361287  0.28504349     0.15400
N96         N  0.12158703  0.34884841  0.38553497    -0.00900
C97         C  0.09423814  0.35434730  0.34779439     0.01600
C98         C  0.08915116  0.39969837  0.33700053    -0.21200
C99         C  0.10566470  0.42197394  0.37426353    -0.21400
C100        C  0.11174117  0.38810517  0.40753856     0.01500
H101        H  0.51068137  0.25182286  0.43014744     0.15300
H102        H  0.51711823  0.31722079  0.48678489     0.15400
Zn103      Zn  0.01809331  0.40707684  0.02539374     1.49700
Zn104      Zn  0.00010302  0.45410515  0.43767902     1.49400
Zn105      Zn  0.42100358  0.48661601  0.01949609     1.49100
Zn106      Zn  0.02048683  0.00149647  0.02122021     1.49500
O107        O  0.99003040  0.46146459  0.00084593    -1.81600
O108        O  0.07664507  0.38755660  0.48267219    -0.72200
O109        O  0.42202847  0.52194559  0.41932536    -0.72000
O110        O  0.39826340  0.43550047  0.06502896    -0.71600
O111        O  0.03074864  0.39491038  0.42344621    -0.72200
O112        O  0.43644622  0.37872370  0.03475846    -0.71800
O113        O  0.37560870  0.51071572  0.48025154    -0.72400
O114        O  0.99008787  0.04506242  0.06499879    -0.71800
O115        O  0.05010305  0.99424153  0.40949076    -0.72600
O116        O  0.40946801  0.01169851  0.03691846    -0.72000
O117        O  0.05231465  0.04156223  0.96915988    -0.72400
O118        O  0.08804936  0.48042185  0.04284271    -0.72300
O119        O  0.05275880  0.42287304  0.07900786    -0.72100
C120        C  0.07106459  0.38791030  0.43982628     0.79700
C121        C  0.39627351  0.98286363  0.43209468     0.80200
C122        C  0.41405051  0.39514123  0.06810536     0.79100
C123        C  0.43571018  0.04005800  0.05737472     0.79500
C124        C  0.06930282  0.02985647  0.42641508     0.80600
C125        C  0.08962640  0.44209753  0.06477306     0.79700
N126        N  0.13398666  0.09687327  0.34467098    -0.00900
C127        C  0.16978608  0.07732497  0.32217248     0.01600
C128        C  0.20459477  0.10952741  0.31192686    -0.21200
C129        C  0.18515746  0.15079033  0.31620106    -0.21400
C130        C  0.13930178  0.14113375  0.32812630     0.01500
H131        H  0.23537849  0.10405130  0.29198249     0.15300
H132        H  0.19858975  0.18122484  0.29829857     0.15400
N133        N  0.13014855  0.08847329  0.39341830    -0.00900
C134        C  0.11641693  0.04500433  0.40952390     0.01600
C135        C  0.14905962  0.02777400  0.43911331    -0.21200
C136        C  0.17930677  0.06220807  0.44849955    -0.21400
C137        C  0.16666815  0.09937386  0.42282249     0.01500
H138        H  0.13579518  0.98949726  0.95640162     0.15300
H139        H  0.19768418  0.05071001  0.97449094     0.15400
Zn140      Zn  0.26734208  0.28374455  0.00280254     1.49700
Zn141      Zn  0.32889120  0.20153523  0.01409608     1.49400
Zn142      Zn  0.21725192  0.18737542  0.02782622     1.49100
Zn143      Zn  0.26915531  0.20536541  0.43437846     1.49500
O144        O  0.26806083  0.21682433  0.99532491    -1.81600
O145        O  0.32408196  0.30880146  0.04107335    -0.72200
O146        O  0.32582116  0.14748281  0.04852647    -0.72000
O147        O  0.17771893  0.24294259  0.05330938    -0.71600
O148        O  0.35528963  0.24235207  0.05859549    -0.72200
O149        O  0.22371286  0.30554005  0.04733736    -0.71800
O150        O  0.25175468  0.13834981  0.06945952    -0.72400
O151        O  0.21267179  0.16830327  0.41354565    -0.71800
O152        O  0.37502214  0.17606024  0.46969775    -0.72600
O153        O  0.17596822  0.14817102  0.98203459    -0.72000
O154        O  0.32158094  0.16077557  0.41741636    -0.72400
O155        O  0.26141757  0.26756006  0.40652179    -0.72300
O156        O  0.23263249  0.31270531  0.45846215    -0.72100
C157        C  0.35054441  0.28431222  0.06616820     0.79700
C158        C  0.29443031  0.12583858  0.06981592     0.80200
C159        C  0.18523864  0.28682446  0.05767817     0.79100
C160        C  0.18607662  0.14433075  0.43928513     0.79500
C161        C  0.36057980  0.15256196  0.43609828     0.80600
C162        C  0.22858782  0.29256359  0.42037338     0.79700
N163        N  0.35682022  0.34294440  0.17050370    -0.00900
C164        C  0.35457303  0.30361523  0.19725129     0.01600
C165        C  0.31022615  0.29278925  0.21196463    -0.21200
C166        C  0.28511966  0.32944725  0.19985962    -0.21400
C167        C  0.31611945  0.36132519  0.18044414     0.01500
H168        H  0.29930837  0.26559045  0.23558821     0.15300
H169        H  0.25094754  0.33589813  0.21271337     0.15400
N170        N  0.37099245  0.34389406  0.12349876    -0.00900
C171        C  0.41106807  0.36742366  0.11210550     0.01600
C172        C  0.44650024  0.33653704  0.11443437    -0.21200
C173        C  0.42531846  0.29495129  0.10499345    -0.21400
C174        C  0.37866075  0.30311801  0.10401187     0.01500
H175        H  0.48039147  0.34983700  0.63463602     0.13700
H176        H  0.44678812  0.27222730  0.60455961     0.15400
N177        N  0.14436076  0.34605523  0.60820105    -0.00900
C178        C  0.09942063  0.33103086  0.61543509     0.01600
C179        C  0.07789830  0.31951831  0.57483841    -0.21200
C180        C  0.11251266  0.31288765  0.54523228    -0.21400
C181        C  0.15264693  0.32216749  0.56906683     0.01500
H182        H  0.04358046  0.30409755  0.57066873     0.15300
H183        H  0.10900520  0.29253812  0.51491779     0.15400
N184        N  0.15208448  0.39573023  0.60767587    -0.00900
C185        C  0.19353178  0.41667187  0.61925837     0.01600
C186        C  0.21507092  0.43582368  0.58100204    -0.21200
C187        C  0.18037686  0.44153401  0.55026834    -0.21400
C188        C  0.14120434  0.42174885  0.57031819     0.01500
H189        H  0.24680704  0.45678630  0.58053340     0.15300
H190        H  0.18155643  0.46617651  0.52224829     0.15400
Zn191      Zn  0.21256599  0.43560154  0.74466952     1.49700
Zn192      Zn  0.24504694  0.49656510  0.81814148     1.49400
Zn193      Zn  0.31832479  0.47377366  0.74779818     1.49100
Zn194      Zn  0.21550192  0.99237474  0.71532071     1.49500
O195        O  0.25522571  0.48536010  0.75548171    -1.81600
O196        O  0.17312012  0.42553604  0.79808043    -0.72200
O197        O  0.29881513  0.53785525  0.83953821    -0.72000
O198        O  0.32543934  0.40801106  0.73117702    -0.71600
O199        O  0.22797391  0.43472592  0.84950631    -0.72200
O200        O  0.25086098  0.38615488  0.72263852    -0.71800
O201        O  0.35270399  0.51281081  0.79298320    -0.72400
O202        O  0.26986107  0.02217146  0.67778750    -0.71800
O203        O  0.15757754  0.99892820  0.81195982    -0.72600
O204        O  0.33430245  0.99368997  0.70583399    -0.72000
O205        O  0.18681626  0.04204298  0.75600424    -0.72400
O206        O  0.22107996  0.48483357  0.65968635    -0.72300
O207        O  0.17072700  0.43770583  0.69350573    -0.72100
C208        C  0.19357040  0.41145199  0.83313840     0.79700
C209        C  0.30253100  0.01514391  0.84472960     0.80200
C210        C  0.29377888  0.38006112  0.71662725     0.79100
C211        C  0.31396660  0.01756466  0.67596434     0.79500
C212        C  0.16772452  0.03808136  0.79541387     0.80600
C213        C  0.19497921  0.44808097  0.65915359     0.79700
N214        N  0.39259762  0.09479328  0.88260400    -0.00900
C215        C  0.43692453  0.09865671  0.86717939     0.01600
C216        C  0.46706943  0.10663035  0.90306608    -0.21200
C217        C  0.44063149  0.12535057  0.93562512    -0.21400
C218        C  0.39538651  0.12119889  0.92054497     0.01500
H219        H  0.50396839  0.11463323  0.89984431     0.15300
H220        H  0.45403566  0.14915678  0.96042309     0.15400
N221        N  0.37046200  0.04972915  0.88439188    -0.00900
C222        C  0.32365721  0.04693268  0.87893796     0.01600
C223        C  0.41781060  0.57256865  0.82158454    -0.21200
C224        C  0.44242214  0.56310428  0.85970009    -0.21400
C225        C  0.37519764  0.02347763  0.92290232     0.01500
H226        H  0.42722729  0.56022225  0.78849202     0.15300
H227        H  0.47236877  0.54193710  0.85867705     0.15400
N228        N  0.34819888  0.07847120  0.62389420    -0.00900
C229        C  0.33935395  0.03272082  0.63347558     0.01600
C230        C  0.31490227  0.01343237  0.59735427    -0.21200
C231        C  0.29416250  0.04861453  0.57548257    -0.21400
C232        C  0.31225246  0.08788122  0.59456935     0.01500
H233        H  0.30166587  0.97834102  0.59526137     0.15300
H234        H  0.26768595  0.04583898  0.54942889     0.15400
N235        N  0.39522598  0.09632591  0.61625368    -0.00900
C236        C  0.40770687  0.14111094  0.62564838     0.01600
C237        C  0.42687552  0.16331138  0.58773525    -0.21200
C238        C  0.43547413  0.13062357  0.55745126    -0.21400
C239        C  0.41795118  0.09011451  0.57578566     0.01500
H240        H  0.97440460  0.20383670  0.57678371     0.15300
H241        H  0.97859500  0.13824498  0.52117340     0.15400
Zn242      Zn  0.47333665  0.24531981  0.70383265     1.49700
Zn243      Zn  0.49915580  0.14916570  0.74806154     1.49400
Zn244      Zn  0.08182013  0.25032510  0.74585921     1.49100
Zn245      Zn  0.46362140  0.23414009  0.80112781     1.49500
O246        O  0.01629569  0.23183103  0.74494444    -1.81600
O247        O  0.43000669  0.19950559  0.67467384    -0.72200
O248        O  0.06332015  0.13847724  0.78192844    -0.72000
O249        O  0.10782201  0.28645333  0.68694928    -0.71600
O250        O  0.46343671  0.13223526  0.68737036    -0.72200
O251        O  0.03893238  0.29373282  0.65521472    -0.71800
O252        O  0.11302165  0.19912309  0.77888101    -0.72400
O253        O  0.50345797  0.28559361  0.83496612    -0.71800
O254        O  0.45657541  0.11787562  0.79159730    -0.72600
O255        O  0.09167005  0.29563600  0.79231146    -0.72000
O256        O  0.45059260  0.17550593  0.83950666    -0.72400
O257        O  0.40171182  0.25358877  0.76890133    -0.72300
O258        O  0.43975079  0.29884998  0.72189355    -0.72100
C259        C  0.43293357  0.15678019  0.66696489     0.79700
C260        C  0.10086428  0.15949268  0.79536520     0.80200
C261        C  0.08209448  0.30317788  0.65553385     0.79100
C262        C  0.06607431  0.31448379  0.82055073     0.79500
C263        C  0.44721299  0.13249418  0.83037818     0.80600
C264        C  0.40169316  0.28177713  0.73498127     0.79700
N265        N  0.16388767  0.34306948  0.87997498    -0.00900
C266        C  0.18099493  0.29992020  0.87790846     0.01600
C267        C  0.19193952  0.28985467  0.83344559    -0.21200
C268        C  0.19878935  0.33110130  0.81259088    -0.21400
C269        C  0.18645391  0.36286626  0.84362546     0.01500
H270        H  0.20753036  0.25922135  0.82135582     0.15300
H271        H  0.21489727  0.33734613  0.78012177     0.15400
N272        N  0.11459230  0.34960445  0.88454729    -0.00900
C273        C  0.08793856  0.35245719  0.84574342     0.01600
C274        C  0.07867724  0.39680239  0.83433089    -0.21200
C275        C  0.09311778  0.42114351  0.87084936    -0.21400
C276        C  0.10197559  0.38895900  0.90497897     0.01500
H277        H  0.54750628  0.39085326  0.78894712     0.15300
H278        H  0.57697738  0.45389195  0.84443085     0.15400
Zn279      Zn  0.02565759  0.40700000  0.52767157     1.49700
Zn280      Zn  0.99206068  0.45432581  0.93629409     1.49400
Zn281      Zn  0.41652053  0.48245721  0.52863024     1.49100
Zn282      Zn  0.02183950  0.00409561  0.51678984     1.49500
O283        O  0.99725701  0.46032573  0.50230956    -1.81600
O284        O  0.06915309  0.38720408  0.98091794    -0.72200
O285        O  0.42781656  0.48938810  0.91480001    -0.72000
O286        O  0.39290564  0.43452657  0.58021144    -0.71600
O287        O  0.02176912  0.39463628  0.92309041    -0.72200
O288        O  0.44765295  0.38725640  0.56369039    -0.71800
O289        O  0.39041434  0.52596934  0.96654913    -0.72400
O290        O  0.98460122  0.04679309  0.55695734    -0.71800
O291        O  0.03798160  0.99537236  0.91232652    -0.72600
O292        O  0.41058119  0.01883938  0.54092868    -0.72000
O293        O  0.05584582  0.04353164  0.46519219    -0.72400
O294        O  0.09383964  0.48329168  0.54444214    -0.72300
O295        O  0.06056006  0.42459711  0.58072907    -0.72100
C296        C  0.06246515  0.38776258  0.93828638     0.79700
C297        C  0.40424111  0.98213734  0.92604152     0.80200
C298        C  0.41517314  0.39852188  0.59006114     0.79100
C299        C  0.43784130  0.04749578  0.55966376     0.79500
C300        C  0.06132809  0.02872245  0.92890395     0.80600
C301        C  0.09673454  0.44508355  0.56628042     0.79700
N302        N  0.12954057  0.09446335  0.84624910    -0.00900
C303        C  0.16815589  0.07794131  0.82596145     0.01600
C304        C  0.20156483  0.11214578  0.81833247    -0.21200
C305        C  0.17938929  0.15195730  0.82290618    -0.21400
C306        C  0.13314451  0.13920498  0.83051369     0.01500
H307        H  0.23417525  0.10893461  0.80065408     0.15300
H308        H  0.19252286  0.18388033  0.80777749     0.15400
N309        N  0.12345832  0.08464459  0.89458858    -0.00900
C310        C  0.10790091  0.04111759  0.90873137     0.01600
C311        C  0.14077975  0.02067086  0.93613074    -0.21200
C312        C  0.17211241  0.05343973  0.94764804    -0.21400
C313        C  0.15965735  0.09242085  0.92502717     0.01500
H314        H  0.14493286  0.99748860  0.46084997     0.15300
H315        H  0.20454933  0.06188539  0.47583094     0.15400
Zn316      Zn  0.27289674  0.28827310  0.51152229     1.49700
Zn317      Zn  0.33625083  0.20565943  0.51624987     1.49400
Zn318      Zn  0.22317471  0.19165104  0.52978135     1.49100
Zn319      Zn  0.26591436  0.19658940  0.93285567     1.49500
O320        O  0.27433075  0.22152033  0.49879115    -1.81600
O321        O  0.32800212  0.31219124  0.55069869    -0.72200
O322        O  0.33092114  0.15375913  0.55437465    -0.72000
O323        O  0.18153465  0.24645632  0.55317941    -0.71600
O324        O  0.36533279  0.24748650  0.56045540    -0.72200
O325        O  0.23087909  0.30583489  0.55977397    -0.71800
O326        O  0.25644692  0.14420247  0.57353136    -0.72400
O327        O  0.21695795  0.15071454  0.91870862    -0.71800
O328        O  0.37187288  0.18074123  0.96758597    -0.72600
O329        O  0.18640038  0.15089054  0.48243787    -0.72000
O330        O  0.32202623  0.15865891  0.91448185    -0.72400
O331        O  0.23769667  0.24698198  0.89901960    -0.72300
O332        O  0.22884413  0.30524581  0.94640626    -0.72100
C333        C  0.35661856  0.28761544  0.57287761     0.79700
C334        C  0.29921010  0.13224164  0.57539896     0.80200
C335        C  0.19038052  0.28908124  0.56288123     0.79100
C336        C  0.18242156  0.13543392  0.94099807     0.79500
C337        C  0.36109819  0.15520981  0.93437236     0.80600
C338        C  0.21753469  0.28351398  0.91016645     0.79700
N339        N  0.35154950  0.33138064  0.68421353    -0.00900
C340        C  0.35911857  0.29106107  0.70822452     0.01600
C341        C  0.31802267  0.26853511  0.72026867    -0.21200
C342        C  0.28407131  0.29807509  0.70987812    -0.21400
C343        C  0.30651694  0.33806449  0.69418016     0.01500
H344        H  0.31378576  0.23803287  0.74167001     0.15300
H345        H  0.24909482  0.29466803  0.72308106     0.15400
N346        N  0.36789817  0.34116851  0.63834428    -0.00900
C347        C  0.40733692  0.36836393  0.63286645     0.01600
C348        C  0.44413962  0.33905882  0.63715555    -0.21200
C349        C  0.42701592  0.29809362  0.62028237    -0.21400
C350        C  0.38052652  0.30427314  0.61440568     0.01500
H351        H  0.48223640  0.34482030  0.10590829     0.13700
H352        H  0.44192849  0.26708157  0.08880094     0.15400
N353        N  0.10967559  0.81879992  0.10413693    -0.00900
C354        C  0.06393609  0.80744142  0.11013363     0.01600
C355        C  0.04422952  0.79242982  0.06968750    -0.21200
C356        C  0.08039027  0.78022638  0.04361194    -0.21400
C357        C  0.11960892  0.79151502  0.06830121     0.01500
H358        H  0.00912764  0.77873135  0.06501743     0.15300
H359        H  0.07787605  0.75670798  0.01561372     0.15400
N360        N  0.12362667  0.86686632  0.10291845    -0.00900
C361        C  0.16660995  0.88195698  0.11592879     0.01600
C362        C  0.18847179  0.90739701  0.08154137    -0.21200
C363        C  0.15504862  0.91764802  0.05133647    -0.21400
C364        C  0.11512960  0.89527056  0.06668644     0.01500
H365        H  0.21954922  0.92889163  0.08494173     0.15300
H366        H  0.15744247  0.94669583  0.02789990     0.15400
Zn367      Zn  0.20521487  0.88811075  0.25219358     1.49700
Zn368      Zn  0.20980733  0.96603984  0.30899226     1.49400
Zn369      Zn  0.30159479  0.95360000  0.25434597     1.49100
Zn370      Zn  0.22919308  0.52727397  0.20696183     1.49500
O371        O  0.23429143  0.94934532  0.25283873    -1.81600
O372        O  0.15298949  0.87741306  0.29812049    -0.72200
O373        O  0.25293922  0.00876941  0.33667003    -0.72000
O374        O  0.31735011  0.88840684  0.23574531    -0.71600
O375        O  0.19652959  0.91317926  0.34832845    -0.72200
O376        O  0.25418289  0.84326193  0.24994307    -0.71800
O377        O  0.32265364  0.98976307  0.31268291    -0.72400
O378        O  0.28458712  0.55829358  0.17314246    -0.71800
O379        O  0.16825391  0.52427394  0.30319397    -0.72600
O380        O  0.34612396  0.52194070  0.19889393    -0.72000
O381        O  0.19742141  0.57193772  0.24975188    -0.72400
O382        O  0.17711925  0.94660571  0.16439398    -0.72300
O383        O  0.17979920  0.87532446  0.19353428    -0.72100
C384        C  0.15910405  0.89137332  0.33821581     0.79700
C385        C  0.30676856  0.54787000  0.33688920     0.80200
C386        C  0.29437873  0.85001217  0.23257445     0.79100
C387        C  0.32722889  0.54771671  0.16988089     0.79500
C388        C  0.17739530  0.56463899  0.28837804     0.80600
C389        C  0.17326681  0.90246638  0.16071179     0.79700
N390        N  0.38178882  0.63822856  0.38719612    -0.00900
C391        C  0.42751081  0.64353742  0.37674417     0.01600
C392        C  0.45340107  0.65212815  0.41556860    -0.21200
C393        C  0.42270794  0.66727629  0.44641302    -0.21400
C394        C  0.37958003  0.66384681  0.42595663     0.01500
H395        H  0.49033260  0.66040546  0.41686518     0.15300
H396        H  0.43213484  0.68739797  0.47572977     0.15400
N397        N  0.36221154  0.59200792  0.38587624    -0.00900
C398        C  0.31898525  0.58689972  0.36837687     0.01600
C399        C  0.29053895  0.03468878  0.41620371    -0.21200
C400        C  0.32181874  0.01921370  0.44693263    -0.21400
C401        C  0.35578502  0.56836094  0.42600111     0.01500
H402        H  0.25399883  0.02590901  0.41903932     0.15300
H403        H  0.31298445  0.99949484  0.47744383     0.15400
N404        N  0.35624026  0.59890320  0.10845569    -0.00900
C405        C  0.35060262  0.55557666  0.12590631     0.01600
C406        C  0.32846069  0.52771165  0.09405852    -0.21200
C407        C  0.31008700  0.55622557  0.06206365    -0.21400
C408        C  0.32598308  0.59968048  0.07269707     0.01500
H409        H  0.31601218  0.49251968  0.09985456     0.15300
H410        H  0.28368065  0.54694361  0.03735134     0.15400
N411        N  0.40100284  0.62212351  0.10684354    -0.00900
C412        C  0.40591277  0.66824547  0.11209175     0.01600
C413        C  0.43138579  0.68738580  0.07589696    -0.21200
C414        C  0.45348911  0.65225579  0.05639599    -0.21400
C415        C  0.43566806  0.61280379  0.07681192     0.01500
H416        H  0.92854731  0.70179802  0.09664172     0.15300
H417        H  0.96691289  0.64309111  0.04577756     0.15400
Zn418      Zn  0.48116716  0.76480676  0.19442516     1.49700
Zn419      Zn  0.46715056  0.67246155  0.24730805     1.49400
Zn420      Zn  0.06188822  0.73091048  0.24155972     1.49100
Zn421      Zn  0.48399786  0.75488749  0.29581963     1.49500
O422        O  0.99827765  0.71319427  0.24747418    -1.81600
O423        O  0.43707928  0.72801153  0.15633908    -0.72200
O424        O  0.03961261  0.62522190  0.28596877    -0.72000
O425        O  0.07445664  0.77435691  0.18531573    -0.71600
O426        O  0.43499462  0.65753907  0.18745837    -0.72200
O427        O  0.00762691  0.76157471  0.14921368    -0.71800
O428        O  0.08867495  0.66973521  0.24588101    -0.72400
O429        O  0.53431098  0.79712589  0.31870029    -0.71800
O430        O  0.42110673  0.66681690  0.29848080    -0.72600
O431        O  0.08247269  0.75604239  0.29971314    -0.72000
O432        O  0.47333503  0.70296357  0.34058542    -0.72400
O433        O  0.42225251  0.77909990  0.27793823    -0.72300
O434        O  0.45387258  0.81671479  0.22051870    -0.72100
C435        C  0.42444945  0.68565211  0.15545293     0.79700
C436        C  0.07874266  0.64707738  0.28261690     0.80200
C437        C  0.04793496  0.78066061  0.15091889     0.79100
C438        C  0.05784993  0.77560970  0.32834374     0.79500
C439        C  0.44141279  0.67183244  0.33646670     0.80600
C440        C  0.41938260  0.79570754  0.23780724     0.79700
N441        N  0.12108300  0.84145368  0.39336522    -0.00900
C442        C  0.14451125  0.84685331  0.43289424     0.01600
C443        C  0.14531605  0.89236265  0.44469050    -0.21200
C444        C  0.12803939  0.91542740  0.40782340    -0.21400
C445        C  0.12385959  0.88349342  0.37394985     0.01500
H446        H  0.16698807  0.90796168  0.47032115     0.15300
H447        H  0.13537488  0.95123975  0.40090165     0.15400
N448        N  0.07695276  0.81836308  0.39352350    -0.00900
C449        C  0.07301783  0.77700571  0.37503319     0.01600
C450        C  0.04884373  0.74690530  0.40412723    -0.21200
C451        C  0.03069286  0.77271907  0.43771219    -0.21400
C452        C  0.04655829  0.81715717  0.42890647     0.01500
H453        H  0.56814598  0.71714398  0.38788511     0.15300
H454        H  0.53195588  0.75876302  0.45565498     0.15400
Zn455      Zn  0.97817121  0.89807725  0.03505056     1.49700
Zn456      Zn  0.99238190  0.95782987  0.43014961     1.49400
Zn457      Zn  0.42387034  0.95207067  0.01184608     1.49100
Zn458      Zn  0.03018124  0.51256508  0.01626046     1.49500
O459        O  0.97297506  0.95793390  0.00342183    -1.81600
O460        O  0.00607810  0.85436540  0.48568591    -0.72200
O461        O  0.43459271  0.98168741  0.41055319    -0.72000
O462        O  0.40163856  0.91200857  0.06291737    -0.71600
O463        O  0.01403613  0.89160526  0.41845204    -0.72200
O464        O  0.45057097  0.85763288  0.07764662    -0.71800
O465        O  0.38639411  0.95293354  0.46299328    -0.72400
O466        O  0.98737918  0.55396125  0.05289032    -0.71800
O467        O  0.04055742  0.50366708  0.40640189    -0.72600
O468        O  0.42341111  0.53585155  0.06139011    -0.72000
O469        O  0.05794578  0.54744278  0.95994435    -0.72400
O470        O  0.07064741  0.95846605  0.04257007    -0.72300
O471        O  0.03413312  0.89604929  0.07104281    -0.72100
C472        C  0.02098253  0.85682363  0.44495181     0.79700
C473        C  0.38595093  0.53122825  0.44241460     0.80200
C474        C  0.41448008  0.87907404  0.08844994     0.79100
C475        C  0.45337551  0.56787675  0.06544519     0.79500
C476        C  0.06452859  0.53751518  0.42150145     0.80600
C477        C  0.07100648  0.91786737  0.06009301     0.79700
N478        N  0.12647680  0.60667130  0.33916384    -0.00900
C479        C  0.16814001  0.60329435  0.31818065     0.01600
C480        C  0.18736939  0.64614510  0.30784805    -0.21200
C481        C  0.15209379  0.67550270  0.31288347    -0.21400
C482        C  0.11281918  0.64754226  0.32161148     0.01500
H483        H  0.21860741  0.65373931  0.28832950     0.15300
H484        H  0.15274671  0.70895583  0.29630236     0.15400
N485        N  0.12257894  0.59545853  0.38698640    -0.00900
C486        C  0.10834458  0.55093445  0.39727956     0.01600
C487        C  0.14400264  0.52777069  0.41821028    -0.21200
C488        C  0.17469640  0.56020779  0.43283833    -0.21400
C489        C  0.16051414  0.60153476  0.41558946     0.01500
H490        H  0.13525212  0.49113567  0.92366193     0.15300
H491        H  0.19792716  0.55062155  0.94657774     0.15400
Zn492      Zn  0.22980297  0.78944515  0.02258819     1.49700
Zn493      Zn  0.30836414  0.73053570  0.01270542     1.49400
Zn494      Zn  0.20824741  0.68166565  0.02427476     1.49100
Zn495      Zn  0.24058703  0.72868939  0.43882763     1.49500
O496        O  0.24382631  0.73074914  0.99593394    -1.81600
O497        O  0.27968221  0.83008811  0.04837614    -0.72200
O498        O  0.32549162  0.67147065  0.03689741    -0.72000
O499        O  0.15441408  0.71943170  0.05146335    -0.71600
O500        O  0.32544550  0.77352494  0.06565336    -0.72200
O501        O  0.19807702  0.77537035  0.07912853    -0.71800
O502        O  0.25677442  0.64179656  0.05974395    -0.72400
O503        O  0.19597639  0.67765195  0.41582330    -0.71800
O504        O  0.35416910  0.72605848  0.46961886    -0.72600
O505        O  0.18044788  0.63847036  0.97510912    -0.72000
O506        O  0.30368363  0.69911939  0.41817248    -0.72400
O507        O  0.19992524  0.78653994  0.42332696    -0.72300
O508        O  0.19434619  0.82176571  0.48998836    -0.72100
C509        C  0.30938153  0.81239550  0.07475755     0.79700
C510        C  0.30140544  0.64020929  0.05659054     0.80200
C511        C  0.15862488  0.75968793  0.06853799     0.79100
C512        C  0.17836594  0.64412870  0.43867905     0.79500
C513        C  0.34369500  0.69822660  0.43765758     0.80600
C514        C  0.18140362  0.81624803  0.44916604     0.79700
N515        N  0.35703501  0.81658244  0.18788399    -0.00900
C516        C  0.38014524  0.78262364  0.20840357     0.01600
C517        C  0.34954360  0.74881269  0.22546627    -0.21200
C518        C  0.30718777  0.76793058  0.22591420    -0.21400
C519        C  0.31457800  0.81173143  0.20819171     0.01500
H520        H  0.35856365  0.71975972  0.24677619     0.15300
H521        H  0.27852544  0.75590987  0.24726022     0.15400
N522        N  0.36341549  0.82860274  0.14033056    -0.00900
C523        C  0.38635496  0.86970909  0.13186681     0.01600
C524        C  0.35367781  0.90312102  0.13710696    -0.21200
C525        C  0.31308383  0.88217858  0.12234306    -0.21400
C526        C  0.32391729  0.83705885  0.11664397     0.01500
H527        H  0.35993004  0.94409682  0.64047229     0.13700
H528        H  0.28571439  0.89996365  0.61554178     0.15400
N529        N  0.11179976  0.82497439  0.60829428    -0.00900
C530        C  0.06554265  0.81359804  0.61125702     0.01600
C531        C  0.04885184  0.79938045  0.56932876    -0.21200
C532        C  0.08673799  0.78698344  0.54585773    -0.21400
C533        C  0.12413163  0.79757123  0.57329037     0.01500
H534        H  0.01411265  0.78605215  0.56200347     0.15300
H535        H  0.08610540  0.76374911  0.51760214     0.15400
N536        N  0.12638097  0.87302936  0.60724901    -0.00900
C537        C  0.17031691  0.88702764  0.61876686     0.01600
C538        C  0.19121092  0.91347903  0.58455202    -0.21200
C539        C  0.15683332  0.92526699  0.55609692    -0.21400
C540        C  0.11728087  0.90251792  0.57176027     0.01500
H541        H  0.22333695  0.93361483  0.58707631     0.15300
H542        H  0.15893137  0.95393740  0.53218646     0.15400
Zn543      Zn  0.21094904  0.88951985  0.75498052     1.49700
Zn544      Zn  0.21413670  0.96396971  0.81691888     1.49400
Zn545      Zn  0.30608118  0.95725878  0.75901502     1.49100
Zn546      Zn  0.24066619  0.52926901  0.71283579     1.49500
O547        O  0.23890220  0.95114124  0.75886227    -1.81600
O548        O  0.15354298  0.87754602  0.79473696    -0.72200
O549        O  0.25921470  0.00558725  0.84823066    -0.72000
O550        O  0.32231588  0.89182232  0.74274470    -0.71600
O551        O  0.19222422  0.90818144  0.85146636    -0.72200
O552        O  0.26017791  0.84523945  0.75754228    -0.71800
O553        O  0.32742429  0.99536308  0.81526196    -0.72400
O554        O  0.30012866  0.56320663  0.68987321    -0.71800
O555        O  0.19280680  0.53593150  0.82139949    -0.72600
O556        O  0.34286202  0.50174059  0.69217775    -0.72000
O557        O  0.20056102  0.57106751  0.75300400    -0.72400
O558        O  0.18027831  0.94962835  0.66968501    -0.72300
O559        O  0.19095412  0.87779104  0.69437957    -0.72100
C560        C  0.15534226  0.88827799  0.83616182     0.79700
C561        C  0.33952113  0.54112433  0.82276321     0.80200
C562        C  0.30054489  0.85265058  0.74079210     0.79100
C563        C  0.33411037  0.54059375  0.67538066     0.79500
C564        C  0.18564597  0.56923820  0.79441463     0.80600
C565        C  0.17961309  0.90573932  0.66376164     0.79700
N566        N  0.37896209  0.64194626  0.88692470    -0.00900
C567        C  0.42256791  0.66227521  0.88407841     0.01600
C568        C  0.43930905  0.67391575  0.92623324    -0.21200
C569        C  0.40204132  0.66967847  0.95435008    -0.21400
C570        C  0.36397706  0.66083331  0.92643581     0.01500
H571        H  0.47178100  0.69204361  0.93386491     0.15300
H572        H  0.40121668  0.68676416  0.98653434     0.15400
N573        N  0.37486363  0.59253322  0.88121844    -0.00900
C574        C  0.37324033  0.57825079  0.83731824     0.01600
C575        C  0.30265044  0.04266465  0.92125135    -0.21200
C576        C  0.33556716  0.02485361  0.94910369    -0.21400
C577        C  0.41142341  0.56676275  0.89557768     0.01500
H578        H  0.26589987  0.03732331  0.92752076     0.15300
H579        H  0.32813254  0.00532177  0.98004171     0.15400
N580        N  0.35859570  0.59699549  0.61731283    -0.00900
C581        C  0.35439206  0.55238300  0.63112950     0.01600
C582        C  0.33012211  0.52691993  0.59888086    -0.21200
C583        C  0.30881912  0.55757959  0.57127589    -0.21400
C584        C  0.32546545  0.60009896  0.58407824     0.01500
H585        H  0.31877465  0.49117359  0.60245119     0.15300
H586        H  0.28064820  0.54991877  0.54799507     0.15400
N587        N  0.40318349  0.62060956  0.61518226    -0.00900
C588        C  0.40851172  0.66638554  0.62238459     0.01600
C589        C  0.43301316  0.68699462  0.58623285    -0.21200
C590        C  0.45410786  0.65271902  0.56433989    -0.21400
C591        C  0.43660644  0.61253136  0.58349821     0.01500
H592        H  0.92583058  0.69998707  0.58549133     0.15300
H593        H  0.97148178  0.63913905  0.54365189     0.15400
Zn594      Zn  0.48398303  0.76564853  0.69420468     1.49700
Zn595      Zn  0.48206801  0.67295304  0.75446736     1.49400
Zn596      Zn  0.05215433  0.73118265  0.73904328     1.49100
Zn597      Zn  0.49165468  0.76595026  0.79916018     1.49500
O598        O  0.98834593  0.71268393  0.74166712    -1.81600
O599        O  0.43263374  0.72674535  0.66835609    -0.72200
O600        O  0.03123010  0.62393453  0.78028404    -0.72000
O601        O  0.07002340  0.77714595  0.68594561    -0.71600
O602        O  0.44915377  0.65600111  0.69345142    -0.72200
O603        O  0.00603736  0.76641004  0.64518114    -0.71800
O604        O  0.07953828  0.67008070  0.74140575    -0.72400
O605        O  0.54618992  0.80046949  0.82282641    -0.71800
O606        O  0.43311009  0.66862625  0.80353031    -0.72600
O607        O  0.06702128  0.75566086  0.79851689    -0.72000
O608        O  0.47057784  0.71886492  0.84681516    -0.72400
O609        O  0.43748898  0.80473412  0.78422540    -0.72300
O610        O  0.46755077  0.82345081  0.71853537    -0.72100
C611        C  0.42854062  0.68321766  0.66549908     0.79700
C612        C  0.07010716  0.64623766  0.77747818     0.80200
C613        C  0.04627782  0.78518220  0.65008506     0.79100
C614        C  0.04058874  0.77488734  0.82584571     0.79500
C615        C  0.44291670  0.68401940  0.84256955     0.80600
C616        C  0.43285502  0.81143027  0.74177991     0.79700
N617        N  0.10858722  0.83921168  0.88782973    -0.00900
C618        C  0.13225137  0.84507638  0.92715776     0.01600
C619        C  0.13235381  0.89078612  0.93830840    -0.21200
C620        C  0.11569649  0.91313754  0.90051218    -0.21400
C621        C  0.11460958  0.88071573  0.86709301     0.01500
H622        H  0.15368582  0.90697048  0.96372858     0.15300
H623        H  0.12263571  0.94889230  0.89304197     0.15400
N624        N  0.06245057  0.81977847  0.89000846    -0.00900
C625        C  0.05503859  0.77811913  0.87248594     0.01600
C626        C  0.03127435  0.74902309  0.90266829    -0.21200
C627        C  0.01773678  0.77529674  0.93766043    -0.21400
C628        C  0.03465627  0.81917672  0.92775067     0.01500
H629        H  0.58802575  0.71734588  0.88735139     0.15300
H630        H  0.55041547  0.75672896  0.95532841     0.15400
Zn631      Zn  0.98325378  0.89924728  0.52970411     1.49700
Zn632      Zn  0.98113731  0.95999751  0.93727632     1.49400
Zn633      Zn  0.42322519  0.95821487  0.51831862     1.49100
Zn634      Zn  0.03501066  0.51266165  0.51786966     1.49500
O635        O  0.97924805  0.95826044  0.49600455    -1.81600
O636        O  0.99783630  0.85501443  0.98775187    -0.72200
O637        O  0.44292701  0.98048909  0.90512067    -0.72000
O638        O  0.40377592  0.92030361  0.57208950    -0.71600
O639        O  0.00211034  0.89435083  0.92144079    -0.72200
O640        O  0.45146793  0.86445147  0.58400577    -0.71800
O641        O  0.39176998  0.94966796  0.95347119    -0.72400
O642        O  0.99074443  0.55264191  0.55252733    -0.71800
O643        O  0.03102765  0.50533339  0.90317391    -0.72600
O644        O  0.42166234  0.53740179  0.56275924    -0.72000
O645        O  0.06062883  0.54954940  0.46273813    -0.72400
O646        O  0.07149811  0.96342654  0.54427652    -0.72300
O647        O  0.03588861  0.89953909  0.57055527    -0.72100
C648        C  0.01064022  0.85882181  0.94633288     0.79700
C649        C  0.40673304  0.52485007  0.92629926     0.80200
C650        C  0.41663578  0.88669669  0.59668716     0.79100
C651        C  0.45262511  0.56801398  0.56889114     0.79500
C652        C  0.05834722  0.53703051  0.91791159     0.80600
C653        C  0.07244367  0.92311459  0.56257984     0.79700
N654        N  0.12084634  0.60732584  0.83332077    -0.00900
C655        C  0.16363289  0.60883911  0.81353291     0.01600
C656        C  0.17846733  0.65277569  0.80218096    -0.21200
C657        C  0.14087876  0.67870692  0.80833704    -0.21400
C658        C  0.10395320  0.64745885  0.81664709     0.01500
H659        H  0.21012493  0.66342895  0.78459192     0.15300
H660        H  0.13878657  0.71258401  0.79301392     0.15400
N661        N  0.11630688  0.59427045  0.88076845    -0.00900
C662        C  0.10106353  0.54982103  0.89059930     0.01600
C663        C  0.13751478  0.52552227  0.90898073    -0.21200
C664        C  0.16989760  0.55703913  0.92301973    -0.21400
C665        C  0.15460477  0.59897262  0.90883068     0.01500
H666        H  0.14145384  0.49385299  0.43400185     0.15300
H667        H  0.20117212  0.55488393  0.45836748     0.15400
Zn668      Zn  0.23734339  0.79101578  0.53121347     1.49700
Zn669      Zn  0.31513529  0.73126946  0.52465985     1.49400
Zn670      Zn  0.21175609  0.68513548  0.53198567     1.49100
Zn671      Zn  0.22956217  0.72793192  0.93008662     1.49500
O672        O  0.25128359  0.73209872  0.50483523    -1.81600
O673        O  0.28737754  0.83145801  0.55648442    -0.72200
O674        O  0.32805272  0.67341223  0.55248417    -0.72000
O675        O  0.15896391  0.72528661  0.55789087    -0.71600
O676        O  0.33152075  0.77478702  0.57726294    -0.72200
O677        O  0.20236151  0.78065073  0.58699760    -0.71800
O678        O  0.25758800  0.64326512  0.56854126    -0.72400
O679        O  0.18450205  0.67683696  0.90972371    -0.71800
O680        O  0.33894132  0.73399324  0.95263425    -0.72600
O681        O  0.18248023  0.64309844  0.48208011    -0.72000
O682        O  0.29073317  0.69741997  0.90623004    -0.72400
O683        O  0.18808438  0.78551634  0.91622590    -0.72300
O684        O  0.18432971  0.82054911  0.98316567    -0.72100
C685        C  0.31561527  0.81411851  0.58458624     0.79700
C686        C  0.30234857  0.64168987  0.56899828     0.80200
C687        C  0.16301124  0.76537262  0.57537889     0.79100
C688        C  0.17246584  0.64099946  0.93232182     0.79500
C689        C  0.32982813  0.69959260  0.92712257     0.80600
C690        C  0.17017737  0.81509989  0.94263328     0.79700
N691        N  0.36417789  0.82153339  0.69687247    -0.00900
C692        C  0.39203427  0.79233314  0.71858099     0.01600
C693        C  0.36604315  0.75862405  0.74195785    -0.21200
C694        C  0.32158103  0.77279191  0.74216591    -0.21400
C695        C  0.32295495  0.81434334  0.71894699     0.01500
H696        H  0.37935622  0.73366748  0.76586769     0.15300
H697        H  0.29533764  0.76064794  0.76624315     0.15400
N698        N  0.36893279  0.83406878  0.64933800    -0.00900
C699        C  0.38923869  0.87631035  0.64030580     0.01600
C700        C  0.35459970  0.90764679  0.64526873    -0.21200
C701        C  0.31504562  0.88434406  0.63133257    -0.21400
C702        C  0.32850995  0.83977855  0.62630050     0.01500
H703        H  0.36107560  0.93948207  0.13312320     0.13700
H704        H  0.28464229  0.89917475  0.10678307     0.15400
N705        N  0.61232341  0.31805908  0.11318025    -0.00900
C706        C  0.56686278  0.30418188  0.11610234     0.01600
C707        C  0.55061827  0.28804204  0.07471280    -0.21200
C708        C  0.58845244  0.28148086  0.04904333    -0.21400
C709        C  0.62573558  0.29492955  0.07534718     0.01500
H710        H  0.51724763  0.27162456  0.06784158     0.15300
H711        H  0.58906180  0.26037036  0.01917249     0.15400
N712        N  0.62462003  0.36619588  0.11829160    -0.00900
C713        C  0.66879269  0.37833103  0.13143019     0.01600
C714        C  0.69360664  0.39644062  0.09443546    -0.21200
C715        C  0.66111066  0.41151223  0.06476455    -0.21400
C716        C  0.61906491  0.39625387  0.08232105     0.01500
H717        H  0.72895804  0.41041204  0.09512136     0.15300
H718        H  0.66702558  0.43619397  0.03724164     0.15400
Zn719      Zn  0.71916936  0.39845903  0.25638742     1.49700
Zn720      Zn  0.73526385  0.48323863  0.32197410     1.49400
Zn721      Zn  0.81207413  0.45275168  0.25105958     1.49100
Zn722      Zn  0.72523231  0.00817564  0.21279910     1.49500
O723        O  0.74812351  0.45826149  0.26133664    -1.81600
O724        O  0.70862921  0.37927599  0.31978272    -0.72200
O725        O  0.79559869  0.51110471  0.35074315    -0.72000
O726        O  0.83055518  0.39046829  0.23237475    -0.71600
O727        O  0.68127416  0.44056325  0.35109409    -0.72200
O728        O  0.76001252  0.35910648  0.22411922    -0.71800
O729        O  0.84341586  0.49116467  0.29571481    -0.72400
O730        O  0.78099373  0.04131495  0.17940722    -0.71800
O731        O  0.66211829  0.01299144  0.30765764    -0.72600
O732        O  0.84310390  0.00726710  0.20635348    -0.72000
O733        O  0.68949876  0.05568105  0.25054448    -0.72400
O734        O  0.69976903  0.44437030  0.16988457    -0.72300
O735        O  0.66576163  0.39010153  0.21254393    -0.72100
C736        C  0.67571920  0.39847751  0.33987396     0.79700
C737        C  0.80890804  0.03797278  0.33678647     0.80200
C738        C  0.80283041  0.36022652  0.21553318     0.79100
C739        C  0.82474736  0.03448591  0.17809643     0.79500
C740        C  0.66883482  0.05183177  0.28921495     0.80600
C741        C  0.67746333  0.40558959  0.17350391     0.79700
N742        N  0.89482111  0.12080978  0.37705337    -0.00900
C743        C  0.94151011  0.12664966  0.37059293     0.01600
C744        C  0.96325036  0.13793578  0.41100667    -0.21200
C745        C  0.92946941  0.15531103  0.43696986    -0.21400
C746        C  0.88840776  0.14825603  0.41358116     0.01500
H747        H  0.99973917  0.14729932  0.41508135     0.15300
H748        H  0.93521745  0.17756609  0.46555097     0.15400
N749        N  0.87490629  0.07479039  0.37731838    -0.00900
C750        C  0.82857753  0.07127325  0.36983405     0.01600
C751        C  0.91518212  0.54061100  0.32377940    -0.21200
C752        C  0.94308701  0.52887612  0.35881118    -0.21400
C753        C  0.87760465  0.04934718  0.41672958     0.01500
H754        H  0.92071165  0.52928524  0.28943983     0.15300
H755        H  0.97235952  0.50714832  0.35494096     0.15400
N756        N  0.86136929  0.09552656  0.12688786    -0.00900
C757        C  0.85162871  0.04989302  0.13690197     0.01600
C758        C  0.83048965  0.02924797  0.09983442    -0.21200
C759        C  0.81411278  0.06352902  0.07338125    -0.21400
C760        C  0.82980251  0.10363550  0.09285965     0.01500
H761        H  0.81603433  0.99469762  0.09880586     0.15300
H762        H  0.78817074  0.05961484  0.04696075     0.15400
N763        N  0.90923977  0.11098817  0.12081015    -0.00900
C764        C  0.92374222  0.15566851  0.12678708     0.01600
C765        C  0.94867334  0.17249209  0.08938443    -0.21200
C766        C  0.95719837  0.13662330  0.06321810    -0.21400
C767        C  0.93510075  0.09963246  0.08383579     0.01500
H768        H  0.44231507  0.18959417  0.08424948     0.15300
H769        H  0.46159298  0.12615937  0.02981271     0.15400
Zn770      Zn  0.99147066  0.26055273  0.19899006     1.49700
Zn771      Zn  0.00948954  0.16600146  0.25008102     1.49400
Zn772      Zn  0.54275007  0.25146888  0.25607705     1.49100
Zn773      Zn  0.98487802  0.25530589  0.29924924     1.49500
O774        O  0.48613337  0.21500363  0.25048959    -1.81600
O775        O  0.94594628  0.21538226  0.17331184    -0.72200
O776        O  0.55411367  0.13586170  0.27685702    -0.72000
O777        O  0.56602916  0.28389632  0.19628308    -0.71600
O778        O  0.97605959  0.14752240  0.19014756    -0.72200
O779        O  0.50979256  0.25669368  0.15197050    -0.71800
O780        O  0.58286029  0.20721733  0.28813838    -0.72400
O781        O  0.02841758  0.30477569  0.33043681    -0.71800
O782        O  0.96318092  0.14098359  0.29420324    -0.72600
O783        O  0.53923059  0.29874423  0.30326464    -0.72000
O784        O  0.96854107  0.19979918  0.34094033    -0.72400
O785        O  0.92421850  0.27405458  0.26669039    -0.72300
O786        O  0.95945861  0.31560901  0.21406625    -0.72100
C787        C  0.94725835  0.17230589  0.16798024     0.79700
C788        C  0.58290373  0.16403427  0.29652644     0.80200
C789        C  0.54677591  0.28107144  0.15727401     0.79100
C790        C  0.52083340  0.28838802  0.34122016     0.79500
C791        C  0.95813690  0.15739018  0.33309264     0.80600
C792        C  0.92286525  0.29646630  0.22892238     0.79700
N793        N  0.61744172  0.34986347  0.38360924    -0.00900
C794        C  0.64254854  0.31074908  0.37911126     0.01600
C795        C  0.64082742  0.29835665  0.33407156    -0.21200
C796        C  0.62842180  0.33731806  0.31100081    -0.21400
C797        C  0.63015395  0.37122171  0.34373803     0.01500
H798        H  0.65962648  0.27151514  0.31865635     0.15300
H799        H  0.63640339  0.34247029  0.27549178     0.15400
N800        N  0.56735948  0.34447729  0.38948963    -0.00900
C801        C  0.54505714  0.30251618  0.38369378     0.01600
C802        C  0.53112229  0.28337634  0.42470032    -0.21200
C803        C  0.53570322  0.31802979  0.45485281    -0.21400
C804        C  0.54720349  0.35718116  0.42896103     0.01500
H805        H  0.07051297  0.41431638  0.30858655     0.15300
H806        H  0.09839553  0.45703532  0.37977275     0.15400
Zn807      Zn  0.49547885  0.40875504  0.01029317     1.49700
Zn808      Zn  0.48087583  0.48700183  0.43362138     1.49400
Zn809      Zn  0.92554119  0.46403431  0.02279579     1.49100
Zn810      Zn  0.52518751  0.99513500  0.02048048     1.49500
O811        O  0.48513369  0.47427845  0.00237907    -1.81600
O812        O  0.47306268  0.38291297  0.45315221    -0.72200
O813        O  0.93478705  0.45731976  0.41861624    -0.72000
O814        O  0.91005894  0.40682271  0.06546561    -0.71600
O815        O  0.51207239  0.42947643  0.40714270    -0.72200
O816        O  0.97253221  0.36476270  0.05571323    -0.71800
O817        O  0.89942359  0.49670482  0.47019351    -0.72400
O818        O  0.48023907  0.03604749  0.05808037    -0.71800
O819        O  0.54185095  0.99570132  0.40782625    -0.72600
O820        O  0.91494704  0.02969825  0.05293701    -0.72000
O821        O  0.55882574  0.03580095  0.96899997    -0.72400
O822        O  0.57664545  0.46342941  0.06221915    -0.72300
O823        O  0.54150409  0.39436415  0.05739926    -0.72100
C824        C  0.50863907  0.39101713  0.42833640     0.79700
C825        C  0.90281700  0.00549922  0.42139164     0.80200
C826        C  0.93431897  0.37190648  0.07591816     0.79100
C827        C  0.94712520  0.05440765  0.06916124     0.79500
C828        C  0.56264459  0.03072660  0.42411376     0.80600
C829        C  0.57598482  0.41944032  0.06879713     0.79700
N830        N  0.62405268  0.10285531  0.34086246    -0.00900
C831        C  0.66311290  0.09296616  0.31690157     0.01600
C832        C  0.69016602  0.13160353  0.30687782    -0.21200
C833        C  0.66331455  0.16733225  0.31581196    -0.21400
C834        C  0.62027943  0.14802224  0.32781827     0.01500
H835        H  0.72137788  0.13359312  0.28640664     0.15300
H836        H  0.67012613  0.20068195  0.30024328     0.15400
N837        N  0.62177400  0.09008693  0.38873953    -0.00900
C838        C  0.60764700  0.04588966  0.40198330     0.01600
C839        C  0.64192774  0.02551774  0.42724486    -0.21200
C840        C  0.67393291  0.05835452  0.43762413    -0.21400
C841        C  0.66008775  0.09766249  0.41640760     0.01500
H842        H  0.64497005  0.99228455  0.95980126     0.15300
H843        H  0.70992301  0.05306668  0.96992335     0.15400
Zn844      Zn  0.74412933  0.28970028  0.02042078     1.49700
Zn845      Zn  0.82152550  0.21879556  0.02144046     1.49400
Zn846      Zn  0.71703492  0.18392279  0.03164145     1.49100
Zn847      Zn  0.75180231  0.21704096  0.42102235     1.49500
O848        O  0.75918912  0.22524606  0.00225209    -1.81600
O849        O  0.79682120  0.32659460  0.05256713    -0.72200
O850        O  0.82849049  0.18439385  0.07972092    -0.72000
O851        O  0.66618125  0.22654588  0.05757688    -0.71600
O852        O  0.84522690  0.28216203  0.02053682    -0.72200
O853        O  0.70663689  0.28913594  0.07551170    -0.71800
O854        O  0.76295178  0.14336098  0.06852409    -0.72400
O855        O  0.71025728  0.16289471  0.40886184    -0.71800
O856        O  0.84689087  0.18488169  0.46780590    -0.72600
O857        O  0.68619520  0.14121290  0.98341967    -0.72000
O858        O  0.81583127  0.18915769  0.39907386    -0.72400
O859        O  0.70863110  0.26442741  0.39217328    -0.72300
O860        O  0.69804969  0.32015743  0.44221671    -0.72100
C861        C  0.83374508  0.30438425  0.05497247     0.79700
C862        C  0.80543503  0.14664854  0.08239480     0.80200
C863        C  0.66823838  0.26811308  0.07183353     0.79100
C864        C  0.68056884  0.14137525  0.43337602     0.79500
C865        C  0.84696055  0.17416966  0.42652956     0.80600
C866        C  0.68564244  0.29854885  0.40611902     0.79700
N867        N  0.86499049  0.32719336  0.17334764    -0.00900
C868        C  0.88234500  0.29130291  0.19810788     0.01600
C869        C  0.84791092  0.25903366  0.20958181    -0.21200
C870        C  0.80736113  0.27995462  0.20129137    -0.21400
C871        C  0.82021524  0.32416015  0.18713799     0.01500
H872        H  0.85145873  0.22911509  0.23154242     0.15300
H873        H  0.77478268  0.26918222  0.21717197     0.15400
N874        N  0.87375804  0.33284254  0.12521756    -0.00900
C875        C  0.91879828  0.33711883  0.11158513     0.01600
C876        C  0.93474935  0.29365943  0.10449181    -0.21200
C877        C  0.89585326  0.26777811  0.09487214    -0.21400
C878        C  0.85969632  0.29725311  0.09840431     0.01500
H879        H  0.96752205  0.28251065  0.58322985     0.13700
H880        H  0.89603935  0.24003851  0.55511048     0.15400
N881        N  0.61751041  0.32942044  0.60880959    -0.00900
C882        C  0.57264831  0.31612621  0.61868549     0.01600
C883        C  0.55009274  0.29951223  0.58027814    -0.21200
C884        C  0.58393118  0.28578989  0.55298346    -0.21400
C885        C  0.62427587  0.30026106  0.57340766     0.01500
H886        H  0.51529588  0.28528588  0.57778602     0.15300
H887        H  0.57991532  0.26265708  0.52476540     0.15400
N888        N  0.62739477  0.37815755  0.60225569    -0.00900
C889        C  0.66835590  0.39904304  0.61510797     0.01600
C890        C  0.69173122  0.41788052  0.57779165    -0.21200
C891        C  0.66004806  0.41914837  0.54368001    -0.21400
C892        C  0.61995933  0.39870900  0.56104415     0.01500
H893        H  0.72307241  0.43950140  0.57846046     0.15300
H894        H  0.66290738  0.44123188  0.51374930     0.15400
Zn895      Zn  0.70942453  0.40091322  0.73026814     1.49700
Zn896      Zn  0.72896355  0.46598494  0.81403858     1.49400
Zn897      Zn  0.80511092  0.44524183  0.74078970     1.49100
Zn898      Zn  0.72555816  0.00673634  0.70630407     1.49500
O899        O  0.74137473  0.45521776  0.75051667    -1.81600
O900        O  0.68737192  0.36338298  0.77982448    -0.72200
O901        O  0.78839767  0.49961129  0.84079509    -0.72000
O902        O  0.81759609  0.38069100  0.72386493    -0.71600
O903        O  0.69716069  0.40596405  0.84167399    -0.72200
O904        O  0.74957713  0.36614681  0.69044086    -0.71800
O905        O  0.83837305  0.48165025  0.78702934    -0.72400
O906        O  0.77740457  0.04073130  0.66703709    -0.71800
O907        O  0.66849493  0.00229649  0.80296983    -0.72600
O908        O  0.84562746  0.02039311  0.69501645    -0.72000
O909        O  0.69080576  0.05140318  0.74912853    -0.72400
O910        O  0.69609322  0.46468956  0.65739903    -0.72300
O911        O  0.65501725  0.41049640  0.69349463    -0.72100
C912        C  0.68204928  0.36937104  0.82175162     0.79700
C913        C  0.81324515  0.04363248  0.82796531     0.80200
C914        C  0.79238115  0.35918035  0.69479428     0.79100
C915        C  0.82211025  0.04107610  0.66513110     0.79500
C916        C  0.67302152  0.04310936  0.78870367     0.80600
C917        C  0.67179495  0.42677523  0.65702851     0.79700
N918        N  0.89480422  0.12320045  0.88092502    -0.00900
C919        C  0.94033515  0.12813498  0.86913687     0.01600
C920        C  0.96678835  0.13858824  0.90715051    -0.21200
C921        C  0.93660461  0.15347244  0.93870714    -0.21400
C922        C  0.89299445  0.14764993  0.91998651     0.01500
H923        H  0.00359558  0.14762276  0.90729394     0.15300
H924        H  0.94596673  0.17305713  0.96841381     0.15400
N925        N  0.87187196  0.07872890  0.87819805    -0.00900
C926        C  0.82811624  0.07875687  0.86164171     0.01600
C927        C  0.90859011  0.53109258  0.81965690    -0.21200
C928        C  0.93439595  0.51970522  0.85630184    -0.21400
C929        C  0.86404613  0.05403333  0.91762556     0.01500
H930        H  0.91599674  0.51908749  0.78592738     0.15300
H931        H  0.96347286  0.49749949  0.85421659     0.15400
N932        N  0.85796437  0.10275083  0.61355824    -0.00900
C933        C  0.84587681  0.05737223  0.62258173     0.01600
C934        C  0.82464888  0.03758171  0.58525938    -0.21200
C935        C  0.81089862  0.07266718  0.55849983    -0.21400
C936        C  0.82732018  0.11215731  0.57875087     0.01500
H937        H  0.80852063  0.00358055  0.58415764     0.15300
H938        H  0.78485057  0.06995428  0.53204072     0.15400
N939        N  0.90685159  0.11427171  0.60719605    -0.00900
C940        C  0.92592075  0.15718580  0.61533445     0.01600
C941        C  0.95096952  0.17396762  0.57802953    -0.21200
C942        C  0.95417528  0.13940843  0.54899096    -0.21400
C943        C  0.92916721  0.10328368  0.56787937     0.01500
H944        H  0.44419786  0.19684913  0.58657199     0.15300
H945        H  0.45877006  0.13479864  0.52893698     0.15400
Zn946      Zn  0.99218951  0.26220302  0.69265784     1.49700
Zn947      Zn  0.00510877  0.16417387  0.74611137     1.49400
Zn948      Zn  0.56441038  0.24131125  0.75045631     1.49100
Zn949      Zn  0.97864150  0.25483515  0.79150123     1.49500
O950        O  0.50188522  0.21592615  0.75221053    -1.81600
O951        O  0.95413276  0.21578846  0.66042267    -0.72200
O952        O  0.56103023  0.12880097  0.78147554    -0.72000
O953        O  0.58713022  0.27653211  0.69134372    -0.71600
O954        O  0.97124699  0.14531786  0.68470318    -0.72200
O955        O  0.51683600  0.27526608  0.66208541    -0.71800
O956        O  0.60141971  0.19562834  0.78261361    -0.72400
O957        O  0.02195962  0.30509947  0.82319105    -0.71800
O958        O  0.95810157  0.14033748  0.79115802    -0.72600
O959        O  0.56851956  0.28874557  0.79392388    -0.72000
O960        O  0.96294165  0.20088988  0.83561514    -0.72400
O961        O  0.91766739  0.26978627  0.75474840    -0.72300
O962        O  0.95123220  0.31280354  0.70224152    -0.72100
C963        C  0.94916009  0.17240873  0.65778871     0.79700
C964        C  0.59519083  0.15412486  0.79641223     0.80200
C965        C  0.55892985  0.28883490  0.66025992     0.79100
C966        C  0.54453193  0.30249027  0.82626282     0.79500
C967        C  0.95350335  0.15800753  0.82964052     0.80600
C968        C  0.91523460  0.29250107  0.71708491     0.79700
N969        N  0.63659645  0.33466008  0.88651314    -0.00900
C970        C  0.64784195  0.29385625  0.90608834     0.01600
C971        C  0.64812394  0.26133650  0.87219121    -0.21200
C972        C  0.66087276  0.28599372  0.83389326    -0.21400
C973        C  0.65841164  0.33125233  0.84621370     0.01500
H974        H  0.65597357  0.22565421  0.87733298     0.15300
H975        H  0.67641205  0.27279272  0.80361154     0.15400
N976        N  0.58927334  0.34909009  0.88573545    -0.00900
C977        C  0.56280532  0.34461327  0.84697712     0.01600
C978        C  0.56251936  0.38508466  0.82220623    -0.21200
C979        C  0.58069987  0.41736107  0.85031112    -0.21400
C980        C  0.58367512  0.39451934  0.89209255     0.01500
H981        H  0.05903541  0.40920371  0.80552537     0.15300
H982        H  0.08315062  0.45555678  0.87525596     0.15400
Zn983      Zn  0.48391180  0.41118139  0.51113437     1.49700
Zn984      Zn  0.49060765  0.49185259  0.93976594     1.49400
Zn985      Zn  0.93290538  0.46337631  0.52320955     1.49100
Zn986      Zn  0.52511571  0.00142998  0.51992121     1.49500
O987        O  0.47753484  0.47473306  0.50026855    -1.81600
O988        O  0.53172670  0.38394914  0.95654139    -0.72200
O989        O  0.92595444  0.45179847  0.91980251    -0.72000
O990        O  0.91347006  0.40436282  0.56003913    -0.71600
O991        O  0.53255553  0.44893672  0.91667696    -0.72200
O992        O  0.97877501  0.36525877  0.55778497    -0.71800
O993        O  0.88864678  0.49266538  0.96836742    -0.72400
O994        O  0.48233917  0.04333490  0.55879869    -0.71800
O995        O  0.55007992  0.99127501  0.90962202    -0.72600
O996        O  0.91234254  0.03463089  0.53156222    -0.72000
O997        O  0.55491662  0.04164167  0.46545184    -0.72400
O998        O  0.56986735  0.46253327  0.55980759    -0.72300
O999        O  0.54719087  0.39710774  0.52700078    -0.72100
C1000       C  0.54815027  0.40958710  0.92438194     0.79700
C1001       C  0.89090298  0.01427228  0.93416349     0.80200
C1002       C  0.93767460  0.37021432  0.57269990     0.79100
C1003       C  0.94189009  0.05782851  0.55388847     0.79500
C1004       C  0.56982456  0.02552176  0.92826076     0.80600
C1005       C  0.57625065  0.42033555  0.54981051     0.79700
N1006       N  0.63226042  0.09261330  0.84502961    -0.00900
C1007       C  0.67146829  0.08050626  0.82235228     0.01600
C1008       C  0.70128258  0.11791770  0.81488849    -0.21200
C1009       C  0.67518121  0.15492514  0.82087075    -0.21400
C1010       C  0.63070014  0.13720704  0.82969409     0.01500
H1011       H  0.73339558  0.11855389  0.79580722     0.15300
H1012       H  0.68443630  0.18830423  0.80609905     0.15400
N1013       N  0.63061357  0.08379884  0.89380477    -0.00900
C1014       C  0.61638710  0.04070828  0.91018366     0.01600
C1015       C  0.64985448  0.02208324  0.93755668    -0.21200
C1016       C  0.68316245  0.05458823  0.94409084    -0.21400
C1017       C  0.66956609  0.09291830  0.92055806     0.01500
H1018       H  0.63638456  0.99547756  0.44882617     0.15300
H1019       H  0.70017518  0.05561885  0.46382623     0.15400
Zn1020     Zn  0.74274618  0.29993465  0.49553600     1.49700
Zn1021     Zn  0.81512167  0.22457553  0.50746815     1.49400
Zn1022     Zn  0.71343475  0.19349634  0.52018163     1.49100
Zn1023     Zn  0.75677508  0.21495342  0.93653077     1.49500
O1024       O  0.75344579  0.23326738  0.48569062    -1.81600
O1025       O  0.79485919  0.32804348  0.53853888    -0.72200
O1026       O  0.82309585  0.19342159  0.56787808    -0.72000
O1027       O  0.66967262  0.23692138  0.55426829    -0.71600
O1028       O  0.84395650  0.28547419  0.50511241    -0.72200
O1029       O  0.69686544  0.30861191  0.54142961    -0.71800
O1030       O  0.75945662  0.15118636  0.55512197    -0.72400
O1031       O  0.71064517  0.16551213  0.91570748    -0.71800
O1032       O  0.85592743  0.18249913  0.97940405    -0.72600
O1033       O  0.67580979  0.15101773  0.47548736    -0.72000
O1034       O  0.81981295  0.18777455  0.91315915    -0.72400
O1035       O  0.72813651  0.27402957  0.91438920    -0.72300
O1036       O  0.69553688  0.30821728  0.97291870    -0.72100
C1037       C  0.83237317  0.30639919  0.54025665     0.79700
C1038       C  0.80155800  0.15498018  0.56975408     0.80200
C1039       C  0.66737150  0.28076154  0.55851108     0.79100
C1040       C  0.68684826  0.13726998  0.94005776     0.79500
C1041       C  0.85324160  0.17306274  0.93779098     0.80600
C1042       C  0.69272049  0.29222868  0.93283307     0.79700
N1043       N  0.85772633  0.32414411  0.65999142    -0.00900
C1044       C  0.87325348  0.28910153  0.68744510     0.01600
C1045       C  0.83734331  0.25876582  0.69945337    -0.21200
C1046       C  0.79772604  0.27912082  0.68593587    -0.21400
C1047       C  0.81162758  0.32208548  0.66914630     0.01500
H1048       H  0.83893744  0.23000111  0.72316993     0.15300
H1049       H  0.76374542  0.26957538  0.69952552     0.15400
N1050       N  0.87181696  0.33052846  0.61319634    -0.00900
C1051       C  0.91805816  0.33356352  0.60402889     0.01600
C1052       C  0.93312001  0.29041513  0.59435590    -0.21200
C1053       C  0.89440677  0.26712834  0.57952545    -0.21400
C1054       C  0.85844782  0.29702508  0.58357289     0.01500
H1055       H  0.96806534  0.28578131  0.09103718     0.13700
H1056       H  0.89643833  0.23925654  0.07217146     0.15400
N1057       N  0.63745353  0.82457467  0.10880792    -0.00900
C1058       C  0.59283097  0.80904571  0.11413417     0.01600
C1059       C  0.57364383  0.79406958  0.07375909    -0.21200
C1060       C  0.60985372  0.78972910  0.04534364    -0.21400
C1061       C  0.64866678  0.79941328  0.07139754     0.01500
H1062       H  0.53980255  0.77733829  0.06918051     0.15300
H1063       H  0.60848850  0.76783730  0.01616294     0.15400
N1064       N  0.64434415  0.87420221  0.10756929    -0.00900
C1065       C  0.68505157  0.89556447  0.12016527     0.01600
C1066       C  0.70350115  0.92237492  0.08473127    -0.21200
C1067       C  0.66891286  0.92723522  0.05433562    -0.21400
C1068       C  0.63204456  0.90104275  0.07100721     0.01500
H1069       H  0.73269852  0.94665684  0.08667016     0.15300
H1070       H  0.66796833  0.95390315  0.02832369     0.15400
Zn1071     Zn  0.71475840  0.90852823  0.25932987     1.49700
Zn1072     Zn  0.72300026  0.98668427  0.31295473     1.49400
Zn1073     Zn  0.81381268  0.97090600  0.25852446     1.49100
Zn1074     Zn  0.72268209  0.49292155  0.21451200     1.49500
O1075       O  0.74670313  0.96816514  0.25761281    -1.81600
O1076       O  0.66785114  0.89686228  0.31076016    -0.72200
O1077       O  0.76497709  0.03469237  0.33530909    -0.72000
O1078       O  0.82748199  0.90488341  0.23901746    -0.71600
O1079       O  0.71211490  0.93740325  0.35720841    -0.72200
O1080       O  0.76371105  0.86463633  0.26132653    -0.71800
O1081       O  0.83423994  0.01036829  0.31475521    -0.72400
O1082       O  0.77537432  0.53106531  0.18130915    -0.71800
O1083       O  0.70300852  0.54062292  0.31295604    -0.72600
O1084       O  0.83267609  0.48417962  0.19625702    -0.72000
O1085       O  0.66928507  0.52309198  0.24755937    -0.72400
O1086       O  0.69815143  0.96146472  0.16660193    -0.72300
O1087       O  0.68843401  0.89237911  0.20016283    -0.72100
C1088       C  0.67754353  0.90995961  0.35067738     0.79700
C1089       C  0.83482509  0.51500709  0.33031705     0.80200
C1090       C  0.80165931  0.86804934  0.23928368     0.79100
C1091       C  0.81597636  0.51623321  0.17309700     0.79500
C1092       C  0.66766651  0.53903003  0.28785146     0.80600
C1093       C  0.68961924  0.91768276  0.16488040     0.79700
N1094       N  0.88749443  0.61034655  0.39276031    -0.00900
C1095       C  0.93145002  0.62753764  0.38507300     0.01600
C1096       C  0.95367763  0.63804941  0.42509641    -0.21200
C1097       C  0.91928901  0.63834975  0.45649057    -0.21400
C1098       C  0.87821186  0.63163297  0.43257331     0.01500
H1099       H  0.98741626  0.65502096  0.42882918     0.15300
H1100       H  0.92300991  0.65883071  0.48634503     0.15400
N1101       N  0.87954555  0.56124653  0.38791134    -0.00900
C1102       C  0.87275457  0.54817651  0.34415417     0.01600
C1103       C  0.80551052  0.06907173  0.41119524    -0.21200
C1104       C  0.83708841  0.05272862  0.44132366    -0.21400
C1105       C  0.91623790  0.53357537  0.39737775     0.01500
H1106       H  0.76852297  0.06387852  0.41592159     0.15300
H1107       H  0.82789412  0.03384356  0.47216857     0.15400
N1108       N  0.84714615  0.57235031  0.11723758    -0.00900
C1109       C  0.83945010  0.52781778  0.13008681     0.01600
C1110       C  0.81705590  0.50381963  0.09557861    -0.21200
C1111       C  0.80058383  0.53582560  0.06608691    -0.21400
C1112       C  0.81782316  0.57721225  0.08131896     0.01500
H1113       H  0.80342144  0.46865817  0.09779295     0.15300
H1114       H  0.77538969  0.53001519  0.03929794     0.15400
N1115       N  0.89217546  0.59512780  0.11955151    -0.00900
C1116       C  0.89617885  0.64027050  0.13083454     0.01600
C1117       C  0.91808467  0.66565767  0.09609961    -0.21200
C1118       C  0.93989243  0.63506497  0.07042790    -0.21400
C1119       C  0.92459506  0.59242713  0.08568521     0.01500
H1120       H  0.44258609  0.72311745  0.07145731     0.15300
H1121       H  0.48072463  0.65530127  0.03113296     0.15400
Zn1122     Zn  0.96827228  0.73996403  0.19918603     1.49700
Zn1123     Zn  0.98061778  0.64891960  0.25475166     1.49400
Zn1124     Zn  0.57053444  0.72558301  0.24232085     1.49100
Zn1125     Zn  0.97169935  0.74036718  0.29792884     1.49500
O1126       O  0.50401493  0.72850846  0.24212932    -1.81600
O1127       O  0.91523198  0.69750301  0.18198892    -0.72200
O1128       O  0.51193694  0.63061615  0.27508147    -0.72000
O1129       O  0.59618584  0.76091075  0.18281784    -0.71600
O1130       O  0.94632037  0.62941003  0.19563718    -0.72200
O1131       O  0.53002176  0.79043705  0.15834304    -0.71800
O1132       O  0.58416999  0.66096667  0.27051739    -0.72400
O1133       O  0.01673458  0.78777030  0.31940385    -0.71800
O1134       O  0.93511184  0.63656988  0.30494332    -0.72600
O1135       O  0.59508007  0.75886433  0.29498044    -0.72000
O1136       O  0.96316177  0.69304538  0.34700005    -0.72400
O1137       O  0.91023794  0.76006399  0.27448555    -0.72300
O1138       O  0.94743321  0.79756248  0.22027608    -0.72100
C1139       C  0.91773718  0.65489895  0.17394863     0.79700
C1140       C  0.55463656  0.63059574  0.28641458     0.80200
C1141       C  0.57332590  0.78692591  0.15540030     0.79100
C1142       C  0.57582083  0.78389712  0.32346394     0.79500
C1143       C  0.94380300  0.65339648  0.34351794     0.80600
C1144       C  0.91006095  0.78171336  0.23656528     0.79700
N1145       N  0.64333589  0.84648674  0.39587504    -0.00900
C1146       C  0.66663450  0.83684832  0.43471478     0.01600
C1147       C  0.67383436  0.87590052  0.45970011    -0.21200
C1148       C  0.66456012  0.91129659  0.43137728    -0.21400
C1149       C  0.65104087  0.89234752  0.39044331     0.01500
H1150       H  0.69625293  0.87922584  0.48901155     0.15300
H1151       H  0.68281162  0.94390486  0.43533757     0.15400
N1152       N  0.59783065  0.82686173  0.38933117    -0.00900
C1153       C  0.59605074  0.78621362  0.36844398     0.01600
C1154       C  0.57748061  0.75209599  0.39725559    -0.21200
C1155       C  0.55721838  0.77399880  0.43216444    -0.21400
C1156       C  0.56726015  0.82007996  0.42478127     0.01500
H1157       H  0.03693523  0.71238370  0.39616065     0.15300
H1158       H  0.00371639  0.76149482  0.46137654     0.15400
Zn1159     Zn  0.49796861  0.88338277  0.02743950     1.49700
Zn1160     Zn  0.49354939  0.95103226  0.43424715     1.49400
Zn1161     Zn  0.91162712  0.97278350  0.02213904     1.49100
Zn1162     Zn  0.53400274  0.51000346  0.02717063     1.49500
O1163       O  0.48817087  0.94472734  0.99789487    -1.81600
O1164       O  0.52080842  0.84786260  0.48382260    -0.72200
O1165       O  0.94197444  0.99994096  0.40241422    -0.72000
O1166       O  0.87999304  0.93237249  0.07047231    -0.71600
O1167       O  0.52566409  0.89030930  0.41950711    -0.72200
O1168       O  0.92789715  0.87615280  0.08206627    -0.71800
O1169       O  0.88635258  0.97458075  0.44857985    -0.72400
O1170       O  0.49653864  0.56347589  0.05500025    -0.71800
O1171       O  0.53030915  0.53218585  0.41082635    -0.72600
O1172       O  0.91965440  0.51541665  0.06396278    -0.72000
O1173       O  0.57580700  0.53241641  0.97331167    -0.72400
O1174       O  0.57897125  0.95903195  0.04935783    -0.72300
O1175       O  0.55215163  0.88791480  0.06512089    -0.72100
C1176       C  0.53645184  0.85498691  0.44352201     0.79700
C1177       C  0.91453347  0.49353171  0.42982534     0.80200
C1178       C  0.89125725  0.89658145  0.09284490     0.79100
C1179       C  0.94536429  0.55114347  0.06794714     0.79500
C1180       C  0.56802369  0.53982379  0.43169651     0.80600
C1181       C  0.58501428  0.91727399  0.06262635     0.79700
N1182       N  0.61282403  0.58679133  0.33212095    -0.00900
C1183       C  0.62277722  0.54856257  0.30806192     0.01600
C1184       C  0.58366406  0.52357232  0.29550381    -0.21200
C1185       C  0.54777705  0.55047710  0.30476051    -0.21400
C1186       C  0.56813892  0.59216053  0.31757461     0.01500
H1187       H  0.58197126  0.49274519  0.27548319     0.15300
H1188       H  0.51350490  0.54495354  0.29023797     0.15400
N1189       N  0.62316887  0.58734012  0.38033107    -0.00900
C1190       C  0.61161973  0.54862097  0.40584719     0.01600
C1191       C  0.65043597  0.52658392  0.42069323    -0.21200
C1192       C  0.68693886  0.55580452  0.41155858    -0.21400
C1193       C  0.66836480  0.59558401  0.39409469     0.01500
H1194       H  0.64004163  0.48997225  0.92770398     0.15300
H1195       H  0.70993881  0.54575060  0.94063175     0.15400
Zn1196     Zn  0.75705137  0.77206615  0.02642108     1.49700
Zn1197     Zn  0.82540294  0.70642367  0.02039444     1.49400
Zn1198     Zn  0.71715232  0.67333368  0.02737899     1.49100
Zn1199     Zn  0.75346929  0.71349561  0.42671605     1.49500
O1200       O  0.76236204  0.71322400  0.00002749    -1.81600
O1201       O  0.81597001  0.80553989  0.03750587    -0.72200
O1202       O  0.82940193  0.64785794  0.04735195    -0.72000
O1203       O  0.67229083  0.72229494  0.05403131    -0.71600
O1204       O  0.84313242  0.74808386  0.07562928    -0.72200
O1205       O  0.72368884  0.76991680  0.08440899    -0.71800
O1206       O  0.75615783  0.62751436  0.06525025    -0.72400
O1207       O  0.70875373  0.66712495  0.40103088    -0.71800
O1208       O  0.85910160  0.70544705  0.46181072    -0.72600
O1209       O  0.68644899  0.63353898  0.97618018    -0.72000
O1210       O  0.81270693  0.67785749  0.40821313    -0.72400
O1211       O  0.71587566  0.77372131  0.41100203    -0.72300
O1212       O  0.71628284  0.79918701  0.48133953    -0.72100
C1213       C  0.83108172  0.78953910  0.07473176     0.79700
C1214       C  0.79999325  0.62026565  0.06487814     0.80200
C1215       C  0.68239043  0.76111843  0.07288968     0.79100
C1216       C  0.68432556  0.63622872  0.42118448     0.79500
C1217       C  0.84845339  0.67360627  0.43374234     0.80600
C1218       C  0.70052451  0.80030932  0.44158013     0.79700
N1219       N  0.85568106  0.82362448  0.19152138    -0.00900
C1220       C  0.86860628  0.78250762  0.20824595     0.01600
C1221       C  0.83107484  0.75538561  0.22305375    -0.21200
C1222       C  0.79610912  0.78471472  0.22769281    -0.21400
C1223       C  0.81455236  0.82720308  0.21398724     0.01500
H1224       H  0.83251816  0.72258483  0.24088120     0.15300
H1225       H  0.76562095  0.77786344  0.24851005     0.15400
N1226       N  0.85921040  0.83288132  0.14328583    -0.00900
C1227       C  0.85910248  0.87794720  0.12976125     0.01600
C1228       C  0.81344529  0.88961549  0.12351209    -0.21200
C1229       C  0.79058085  0.84921459  0.11350437    -0.21400
C1230       C  0.82356427  0.81588980  0.11719235     0.01500
H1231       H  0.80498471  0.92698496  0.58654629     0.13700
H1232       H  0.76085047  0.85210834  0.57354671     0.15400
N1233       N  0.63722637  0.82720732  0.60213659    -0.00900
C1234       C  0.59179750  0.81371414  0.60641671     0.01600
C1235       C  0.57351382  0.79893177  0.56556447    -0.21200
C1236       C  0.61045814  0.79269639  0.53837696    -0.21400
C1237       C  0.64896079  0.80145867  0.56517600     0.01500
H1238       H  0.53928244  0.78344394  0.55997952     0.15300
H1239       H  0.60912781  0.77094555  0.50902935     0.15400
N1240       N  0.64717015  0.87646916  0.60210754    -0.00900
C1241       C  0.68937705  0.89503309  0.61421755     0.01600
C1242       C  0.70576586  0.92590031  0.58095253    -0.21200
C1243       C  0.66992347  0.93438990  0.55306538    -0.21400
C1244       C  0.63364582  0.90661291  0.56833775     0.01500
H1245       H  0.73446267  0.95048487  0.58444331     0.15300
H1246       H  0.66829711  0.96334193  0.52954642     0.15400
Zn1247     Zn  0.73166159  0.90733018  0.75194676     1.49700
Zn1248     Zn  0.73259113  0.98212443  0.80471544     1.49400
Zn1249     Zn  0.82399024  0.98155356  0.74838850     1.49100
Zn1250     Zn  0.72595156  0.50293389  0.70989500     1.49500
O1251       O  0.75568755  0.97001444  0.74775393    -1.81600
O1252       O  0.68081798  0.89428036  0.80019570    -0.72200
O1253       O  0.77031128  0.03259680  0.82777424    -0.72000
O1254       O  0.84777491  0.91841197  0.73074038    -0.71600
O1255       O  0.73044235  0.92877303  0.84539907    -0.72200
O1256       O  0.79110543  0.88306514  0.76875796    -0.71800
O1257       O  0.84215049  0.02188530  0.80399178    -0.72400
O1258       O  0.78450481  0.53405190  0.68015575    -0.71800
O1259       O  0.68388759  0.51563396  0.81936215    -0.72600
O1260       O  0.82951250  0.47443898  0.68516384    -0.72000
O1261       O  0.69257043  0.54905387  0.75066616    -0.72400
O1262       O  0.69359374  0.95739492  0.66531375    -0.72300
O1263       O  0.71254935  0.88739835  0.69092870    -0.72100
C1264       C  0.69256868  0.90576045  0.84005406     0.79700
C1265       C  0.82824056  0.50491192  0.82174680     0.80200
C1266       C  0.81901613  0.88431444  0.73542795     0.79100
C1267       C  0.81962523  0.51227342  0.66689946     0.79500
C1268       C  0.67943635  0.54971545  0.79246903     0.80600
C1269       C  0.69725736  0.91363460  0.65996604     0.79700
N1270       N  0.87713655  0.60229332  0.88672370    -0.00900
C1271       C  0.92014461  0.62000409  0.87509373     0.01600
C1272       C  0.94737270  0.62727688  0.91291311    -0.21200
C1273       C  0.91734616  0.62482112  0.94841652    -0.21400
C1274       C  0.87365147  0.62169677  0.92866333     0.01500
H1275       H  0.98204499  0.64271767  0.91380960     0.15300
H1276       H  0.92552631  0.64054872  0.98035934     0.15400
N1277       N  0.86965798  0.55297864  0.88159037    -0.00900
C1278       C  0.86513085  0.53890911  0.83758058     0.01600
C1279       C  0.79737929  0.08066771  0.89786147    -0.21200
C1280       C  0.81976834  0.06058037  0.93343753    -0.21400
C1281       C  0.90603139  0.52579811  0.89357341     0.01500
H1282       H  0.76007050  0.08065724  0.89521284     0.15300
H1283       H  0.80313158  0.04450841  0.96288233     0.15400
N1284       N  0.84719497  0.56908073  0.60992609    -0.00900
C1285       C  0.84162490  0.52438556  0.62313109     0.01600
C1286       C  0.81857090  0.50003940  0.58922206    -0.21200
C1287       C  0.79974856  0.53166242  0.56051128    -0.21400
C1288       C  0.81642682  0.57359540  0.57492424     0.01500
H1289       H  0.80646847  0.46439579  0.59150735     0.15300
H1290       H  0.77412392  0.52501983  0.53429383     0.15400
N1291       N  0.89092597  0.59406467  0.61278866    -0.00900
C1292       C  0.89291646  0.63974248  0.62148375     0.01600
C1293       C  0.91675373  0.66351001  0.58685494    -0.21200
C1294       C  0.94236147  0.63198986  0.56618751    -0.21400
C1295       C  0.92640742  0.58997687  0.58237620     0.01500
H1296       H  0.44457540  0.72276194  0.58320931     0.15300
H1297       H  0.48067435  0.65670363  0.53848830     0.15400
Zn1298     Zn  0.96266854  0.74115357  0.69165812     1.49700
Zn1299     Zn  0.97252945  0.64745684  0.74756578     1.49400
Zn1300     Zn  0.57491044  0.73762735  0.73736408     1.49100
Zn1301     Zn  0.95566617  0.73741279  0.78957197     1.49500
O1302       O  0.50873490  0.73480036  0.74503611    -1.81600
O1303       O  0.91213602  0.69893342  0.67013654    -0.72200
O1304       O  0.53636262  0.64023234  0.78794249    -0.72000
O1305       O  0.59669914  0.77620365  0.68016067    -0.71600
O1306       O  0.94059536  0.63013010  0.68751356    -0.72200
O1307       O  0.52803666  0.78538558  0.64773884    -0.71800
O1308       O  0.59101505  0.67165425  0.74376129    -0.72400
O1309       O  0.99882317  0.78465250  0.81601552    -0.71800
O1310       O  0.92508149  0.63008141  0.79510862    -0.72600
O1311       O  0.60362084  0.76188471  0.79284317    -0.72000
O1312       O  0.94433467  0.68907955  0.83792069    -0.72400
O1313       O  0.89522767  0.75616192  0.76058723    -0.72300
O1314       O  0.93573483  0.79653709  0.71061309    -0.72100
C1315       C  0.91358925  0.65587029  0.66416268     0.79700
C1316       C  0.57918708  0.65088360  0.78105710     0.80200
C1317       C  0.57169009  0.79159732  0.64765932     0.79100
C1318       C  0.58714864  0.78555798  0.82402677     0.79500
C1319       C  0.92927038  0.64780024  0.83384743     0.80600
C1320       C  0.89715955  0.78111177  0.72464567     0.79700
N1321       N  0.65581620  0.84996031  0.89303759    -0.00900
C1322       C  0.67955323  0.84555500  0.93236065     0.01600
C1323       C  0.68960029  0.88773228  0.95071072    -0.21200
C1324       C  0.67800630  0.91898962  0.91831688    -0.21400
C1325       C  0.66365749  0.89450051  0.88059060     0.01500
H1326       H  0.71270805  0.89478295  0.97893260     0.15300
H1327       H  0.69475140  0.95271034  0.91700846     0.15400
N1328       N  0.61113540  0.82815765  0.88816271    -0.00900
C1329       C  0.61103331  0.78770805  0.86708092     0.01600
C1330       C  0.59579308  0.75265669  0.89656299    -0.21200
C1331       C  0.57489552  0.77341299  0.93194517    -0.21400
C1332       C  0.58166719  0.81998828  0.92433341     0.01500
H1333       H  0.01660458  0.71530616  0.89526520     0.15300
H1334       H  0.99216468  0.76512953  0.96315649     0.15400
Zn1335     Zn  0.49639667  0.88973473  0.53161779     1.49700
Zn1336     Zn  0.49967142  0.94673521  0.93136401     1.49400
Zn1337     Zn  0.91657557  0.97342069  0.50798959     1.49100
Zn1338     Zn  0.52775430  0.50901434  0.52611053     1.49500
O1339       O  0.48629518  0.95067262  0.50103757    -1.81600
O1340       O  0.52870974  0.84367784  0.98057838    -0.72200
O1341       O  0.92877077  0.00308022  0.91508024    -0.72000
O1342       O  0.88486727  0.93574358  0.55663118    -0.71600
O1343       O  0.53516816  0.88736526  0.91716530    -0.72200
O1344       O  0.92988154  0.87806094  0.57236601    -0.71800
O1345       O  0.87508353  0.99260045  0.96920846    -0.72400
O1346       O  0.49542828  0.56263443  0.55826527    -0.71800
O1347       O  0.52602783  0.55000199  0.92010492    -0.72600
O1348       O  0.92604348  0.51098385  0.56814262    -0.72000
O1349       O  0.57071166  0.53287573  0.47461410    -0.72400
O1350       O  0.57992537  0.96438029  0.54689274    -0.72300
O1351       O  0.55336649  0.89369039  0.56516485    -0.72100
C1352       C  0.54673383  0.85239277  0.94139074     0.79700
C1353       C  0.90425576  0.48776057  0.92837411     0.80200
C1354       C  0.89352159  0.90005558  0.58019700     0.79100
C1355       C  0.94930237  0.54847689  0.56853930     0.79500
C1356       C  0.56768818  0.54698351  0.93281337     0.80600
C1357       C  0.58629211  0.92276788  0.56084943     0.79700
N1358       N  0.62501332  0.60106706  0.83462005    -0.00900
C1359       C  0.66526034  0.59355168  0.81151147     0.01600
C1360       C  0.68790196  0.63396821  0.79872777    -0.21200
C1361       C  0.65733598  0.66722087  0.80652061    -0.21400
C1362       C  0.61573818  0.64393666  0.81747250     0.01500
H1363       H  0.71977268  0.63805447  0.77943419     0.15300
H1364       H  0.66129363  0.70100053  0.79089557     0.15400
N1365       N  0.62426302  0.59311561  0.88338500    -0.00900
C1366       C  0.60703605  0.55133266  0.89927306     0.01600
C1367       C  0.64342174  0.52387820  0.91197856    -0.21200
C1368       C  0.68008418  0.55331250  0.91977143    -0.21400
C1369       C  0.66563653  0.59613192  0.90682048     0.01500
H1370       H  0.65126816  0.49693275  0.44339173     0.15300
H1371       H  0.72060030  0.55315145  0.42768642     0.15400
Zn1372     Zn  0.75713520  0.76889976  0.51964468     1.49700
Zn1373     Zn  0.82219114  0.70507291  0.51770867     1.49400
Zn1374     Zn  0.71391605  0.67161185  0.51938673     1.49100
Zn1375     Zn  0.75274727  0.71314054  0.93428443     1.49500
O1376       O  0.76049665  0.71021643  0.49357050    -1.81600
O1377       O  0.81653595  0.80316443  0.52699177    -0.72200
O1378       O  0.82827303  0.64508327  0.54165661    -0.72000
O1379       O  0.67161966  0.72360356  0.54761072    -0.71600
O1380       O  0.83654256  0.74794982  0.57228987    -0.72200
O1381       O  0.72392141  0.77041445  0.57816650    -0.71800
O1382       O  0.75430767  0.62360781  0.55591224    -0.72400
O1383       O  0.70237719  0.67011556  0.91115809    -0.71800
O1384       O  0.86193072  0.69431925  0.96482847    -0.72600
O1385       O  0.68162228  0.63493180  0.46498478    -0.72000
O1386       O  0.80785630  0.67159455  0.91531757    -0.72400
O1387       O  0.72322043  0.77703690  0.91773573    -0.72300
O1388       O  0.71858377  0.80602247  0.98713477    -0.72100
C1389       C  0.82868677  0.79011838  0.56638189     0.79700
C1390       C  0.79841984  0.61667756  0.55740577     0.80200
C1391       C  0.68229151  0.76227180  0.56691172     0.79100
C1392       C  0.68366095  0.63640391  0.93269443     0.79500
C1393       C  0.84625233  0.66474479  0.93614410     0.80600
C1394       C  0.70761537  0.80638900  0.94571388     0.79700
N1395       N  0.85304292  0.83316384  0.67908013    -0.00900
C1396       C  0.85625304  0.79047932  0.69738305     0.01600
C1397       C  0.81375046  0.77295481  0.71231056    -0.21200
C1398       C  0.78624207  0.80983200  0.71379692    -0.21400
C1399       C  0.81486748  0.84734069  0.70143724     0.01500
H1400       H  0.80739841  0.74133230  0.73160349     0.15300
H1401       H  0.75525146  0.81050488  0.73448609     0.15400
N1402       N  0.85696627  0.83925084  0.63061217    -0.00900
C1403       C  0.85831259  0.88343454  0.61451855     0.01600
C1404       C  0.81373532  0.89560578  0.60380349    -0.21200
C1405       C  0.78998308  0.85508194  0.59661545    -0.21400
C1406       C  0.82132312  0.82117629  0.60524399     0.01500
H1407       H  0.80199554  0.92211540  0.11098480     0.13700
H1408       H  0.76024456  0.84768197  0.09197478     0.15400
loop_ 
_geom_bond_atom_site_label_1 
_geom_bond_atom_site_label_2 
_geom_bond_distance 
_geom_bond_site_symmetry_2 
_ccdc_geom_bond_type 
N1            C5   1.381       .  A
N1            C2   1.362       .  A
N1            N8   1.452       .  S
C2            C3   1.384       .  A
C2           C85   1.484       .  S
C3            C4   1.347       .  A
C3            H6   1.076       .  S
C4            C5   1.374       .  A
C4            H7   1.084       .  S
C5          C159   1.491       .  S
N8           C12   1.368       .  A
N8            C9   1.361       .  A
C9           C10   1.387       .  A
C9           C37   1.500       .  S
C10          C11   1.360       .  A
C10          H13   1.083       .  S
C11          C12   1.377       .  A
C11          H14   1.083       .  S
C12         C125   1.479       .  S
Zn15         O19   1.828       .  S
Zn15         O20   1.965       .  S
Zn15         O24   1.946       .  S
Zn15         O31   1.936       .  S
Zn16         O19   1.866       .  S
Zn16         O21   1.969       .  S
Zn16         O23   2.044       .  S
Zn16        O379   1.942       .  S
Zn17         O19   1.941       .  S
Zn17         O22   2.105       .  S
Zn17         O25   2.120       .  S
Zn17        O380   1.976       .  S
Zn18        O371   1.869       .  S
Zn18         O26   2.058   1_565  S
Zn18         O29   2.108   1_565  S
Zn18        O382   2.082       .  S
O19        Zn370   1.865       .  S
O20          C32   1.271       .  A
O21         C385   1.277       .  A
O22          C34   1.294       .  A
O23          C32   1.275       .  A
O24          C34   1.247       .  A
O25         C385   1.289       .  A
O26          C35   1.284       .  A
O27        Zn368   1.960       .  S
O27          C36   1.258   1_565  A
O28        Zn369   2.023       .  S
O28          C35   1.267   1_565  A
O29          C36   1.289       .  A
O30        Zn370   2.110       .  S
O30          C37   1.288       .  A
O31          C37   1.254       .  A
C32          C93   1.471       .  S
C33          C46   1.481       .  S
C33         O373   1.262       .  A
C33         O377   1.288   1_545  A
C34         C167   1.450       .  S
C35          C53   1.495       .  S
C36         C127   1.495       .  S
N38          C42   1.370       .  A
N38          C39   1.349       .  A
N38          N45   1.433       .  S
C39          C40   1.386       .  A
C39          C87   1.469       .  S
C40          C41   1.365       .  A
C40          H43   1.084       .  S
C41          C42   1.380       .  A
C41          H44   1.079       .  S
C42         C161   1.497       .  S
N45          C49   1.365       .  A
N45          C46   1.348       .  A
C46         C399   1.389       .  A
C47          C48   1.367       .  A
C47         C398   1.384       .  A
C47          H50   1.069       .  S
C48         C401   1.377       .  A
C48          H51   1.079       .  S
C49         C400   1.377       .  A
C49         C121   1.485   1_545  S
N52          C56   1.378       .  A
N52          C53   1.365       .  A
N52          N59   1.447       .  S
C53          C54   1.391       .  A
C54          C55   1.356       .  A
C54          H57   1.075   1_545  S
C55          C56   1.367       .  A
C55          H58   1.083       .  S
C56         C158   1.459       .  S
N59          C63   1.380       .  A
N59          C60   1.370       .  A
C60          C61   1.382       .  A
C60          C83   1.481       .  S
C61          C62   1.346       .  A
C61         H768   1.081       .  S
C62          C63   1.367       .  A
C62         H769   1.077       .  S
C63         C123   1.477       .  S
H64         C765   1.082       .  S
H65         C766   1.083       .  S
Zn66        O774   1.838       .  S
Zn66         O71   1.986       .  S
Zn66         O82   1.914       .  S
Zn66        O779   1.947       .  S
Zn67        O774   1.933       .  S
Zn67         O74   2.123       .  S
Zn67         O78   1.953       .  S
Zn67        O776   2.104       .  S
Zn68         O70   1.915       .  S
Zn68         O73   2.109       .  S
Zn68         O76   2.006       .  S
Zn68         O79   1.927       .  S
Zn69        O774   1.890       .  S
Zn69         O77   2.078       .  S
Zn69         O80   2.057       .  S
Zn69         O81   2.104       .  S
O70        Zn770   1.881   1_455  S
O70        Zn771   1.956       .  S
O70        Zn773   1.900   1_455  S
O71          C83   1.269       .  A
O72        Zn771   2.097       .  S
O72          C84   1.286       .  A
O73          C85   1.283       .  A
O74          C83   1.293       .  A
O75        Zn770   1.929   1_455  S
O75          C85   1.264       .  A
O76          C84   1.280       .  A
O77         C790   1.284       .  A
O78          C87   1.259       .  A
O79          C86   1.259       .  A
O80          C87   1.282       .  A
O81          C88   1.287       .  A
O82          C88   1.251       .  A
C84         C130   1.503       .  S
C86          C97   1.462       .  S
C86         O781   1.288       .  A
C88         C164   1.471       .  S
N89          C93   1.365       .  A
N89          C90   1.366       .  A
N89          N96   1.447       .  S
C90          C91   1.387       .  A
C90         C162   1.512       .  S
C91          C92   1.360       .  A
C91          H94   1.077       .  S
C92          C93   1.376       .  A
C92          H95   1.083       .  S
N96         C100   1.364       .  A
N96          C97   1.372       .  A
C97          C98   1.366       .  A
C98          C99   1.362       .  A
C98         H805   1.082       .  S
C99         C100   1.393       .  A
C99         H806   1.065       .  S
C100        C120   1.511       .  S
H101        C802   1.083       .  S
H102        C803   1.083       .  S
Zn103       O107   1.932   1_455  S
Zn103       O119   1.921       .  S
Zn103       O284   2.077   1_554  S
Zn103       O816   1.971   1_455  S
Zn104       O283   1.918   1_455  S
Zn104       O111   2.017       .  S
Zn104       O813   1.968   1_455  S
Zn104       O467   2.031       .  S
Zn105       O811   1.964       .  S
Zn105       O110   2.074       .  S
Zn105       O289   2.127   1_554  S
Zn105       O468   1.908       .  S
Zn106       O459   1.912   1_445  S
Zn106       O114   2.046   1_455  S
Zn106       O117   2.101   1_554  S
Zn106       O470   2.038   1_545  S
O107       Zn280   1.918   1_554  S
O107       Zn809   1.974       .  S
O107       Zn458   1.913   1_655  S
O108       Zn279   2.082       .  S
O108        C120   1.272       .  A
O109       Zn808   2.048       .  S
O109        C473   1.283       .  A
O110        C122   1.277       .  A
O111        C120   1.279       .  A
O112       Zn807   2.013       .  S
O112        C122   1.285       .  A
O113       Zn281   2.029       .  S
O113        C473   1.285       .  A
O114        C827   1.284       .  A
O115       Zn456   2.028   1_455  S
O115        C124   1.268   1_565  A
O116       Zn457   1.958   1_545  S
O116        C123   1.260       .  A
O117        C300   1.280       .  A
O118       Zn458   2.086       .  S
O118        C125   1.281       .  A
O119        C125   1.252       .  A
C121        O461   1.277       .  A
C121        O465   1.274       .  A
C122        C171   1.515       .  S
C123        O818   1.293       .  A
C124        C134   1.496       .  S
C124        O293   1.282       .  A
N126        C130   1.373       .  A
N126        C127   1.374       .  A
N126        N133   1.456       .  S
C127        C128   1.378       .  A
C128        C129   1.352       .  A
C128        H131   1.083       .  S
C129        C130   1.386       .  A
C129        H132   1.082       .  S
N133        C137   1.393       .  A
N133        C134   1.388       .  A
C134        C135   1.382       .  A
C135        C136   1.337       .  A
C135        H314   1.083   1_545  S
C136        C137   1.368       .  A
C136        H315   1.084       .  S
C137        C160   1.494       .  S
H138        C311   1.082   1_565  S
H139        C312   1.084       .  S
Zn140       O144   1.966   1_554  S
Zn140       O145   2.101       .  S
Zn140       O149   1.949       .  S
Zn140       O332   2.094   1_554  S
Zn141       O144   1.903   1_554  S
Zn141       O146   1.856       .  S
Zn141       O148   1.923       .  S
Zn141       O328   1.967   1_554  S
Zn142       O144   1.918   1_554  S
Zn142       O147   2.159       .  S
Zn142       O150   2.136       .  S
Zn142       O153   2.119   1_554  S
Zn143       O320   1.967       .  S
Zn143       O151   2.021       .  S
Zn143       O154   2.095       .  S
Zn143       O155   1.994       .  S
O144       Zn319   1.943       .  S
O145        C157   1.286       .  A
O146        C158   1.247       .  A
O147        C159   1.297       .  A
O148        C157   1.259       .  A
O149        C159   1.253       .  A
O150        C158   1.295       .  A
O151        C160   1.262       .  A
O152       Zn317   1.998       .  S
O152        C161   1.274       .  A
O153        C336   1.287       .  A
O154        C161   1.279       .  A
O155        C162   1.286       .  A
O156       Zn316   2.075       .  S
O156        C162   1.279       .  A
C157        C174   1.479       .  S
C160        O329   1.289       .  A
N163        C167   1.342       .  A
N163        C164   1.377       .  A
N163        N170   1.444       .  S
C164        C165   1.374       .  A
C165        C166   1.353       .  A
C165        H168   1.083       .  S
C166        C167   1.382       .  A
C166        H169   1.080       .  S
N170        C174   1.354       .  A
N170        C171   1.361       .  A
C171        C172   1.386       .  A
C172        C173   1.369       .  A
C172        H351   1.078       .  S
C173        C174   1.374       .  A
C173        H352   1.077       .  S
H175        C348   1.082       .  S
H176        C349   1.073       .  S
N177        C181   1.383       .  A
N177        C178   1.368       .  A
N177        N184   1.455       .  S
C178        C179   1.387       .  A
C178        C261   1.496       .  S
C179        C180   1.348       .  A
C179        H182   1.079       .  S
C180        C181   1.373       .  A
C180        H183   1.083       .  S
C181        C335   1.493       .  S
N184        C188   1.367       .  A
N184        C185   1.367       .  A
C185        C186   1.386       .  A
C185        C213   1.502       .  S
C186        C187   1.360       .  A
C186        H189   1.081       .  S
C187        C188   1.378       .  A
C187        H190   1.083       .  S
C188        C301   1.476       .  S
Zn191       O195   1.897       .  S
Zn191       O196   1.954       .  S
Zn191       O200   1.966       .  S
Zn191       O207   1.930       .  S
Zn192       O195   1.905       .  S
Zn192       O197   2.033       .  S
Zn192       O199   2.053       .  S
Zn192       O555   1.929       .  S
Zn193       O195   1.877       .  S
Zn193       O198   2.003       .  S
Zn193       O201   2.004       .  S
Zn193       O556   1.939       .  S
Zn194       O547   1.881       .  S
Zn194       O202   2.074   1_565  S
Zn194       O205   2.090   1_565  S
Zn194       O558   2.086       .  S
O195       Zn546   1.834       .  S
O196        C208   1.257       .  A
O197        C561   1.274       .  A
O198        C210   1.279       .  A
O199        C208   1.279       .  A
O200        C210   1.269       .  A
O201        C561   1.283       .  A
O202        C211   1.284       .  A
O203       Zn544   1.957       .  S
O203        C212   1.256   1_565  A
O204       Zn545   2.030       .  S
O204        C211   1.267   1_565  A
O205        C212   1.287       .  A
O206       Zn546   2.113       .  S
O206        C213   1.286       .  A
O207        C213   1.257       .  A
C208        C269   1.450       .  S
C209        C222   1.495       .  S
C209        O549   1.273       .  A
C209        O553   1.285   1_545  A
C210        C343   1.460       .  S
C211        C229   1.502       .  S
C212        C303   1.482       .  S
N214        C218   1.369       .  A
N214        C215   1.357       .  A
N214        N221   1.438       .  S
C215        C216   1.384       .  A
C215        C263   1.474       .  S
C216        C217   1.360       .  A
C216        H219   1.084       .  S
C217        C218   1.379       .  A
C217        H220   1.078       .  S
C218        C337   1.487       .  S
N221        C225   1.365       .  A
N221        C222   1.358       .  A
C222        C575   1.388       .  A
C223        C574   1.383       .  A
C223        C224   1.356       .  A
C223        H226   1.084       .  S
C224        C577   1.393       .  A
C224        H227   1.079       .  S
C225        C576   1.382       .  A
C225        C297   1.492   1_545  S
N228        C232   1.379       .  A
N228        C229   1.372       .  A
N228        N235   1.450       .  S
C229        C230   1.391       .  A
C230        C231   1.356       .  A
C230        H233   1.081   1_545  S
C231        C232   1.369       .  A
C231        H234   1.083       .  S
C232        C334   1.461       .  S
N235        C239   1.379       .  A
N235        C236   1.373       .  A
C236        C237   1.385       .  A
C236        C259   1.487       .  S
C237        C238   1.347       .  A
C237        H944   1.081       .  S
C238        C239   1.368       .  A
C238        H945   1.079       .  S
C239        C299   1.473       .  S
H240        C941   1.082       .  S
H241        C942   1.083       .  S
Zn242       O950   1.855       .  S
Zn242       O247   1.999       .  S
Zn242       O955   1.931       .  S
Zn242       O258   1.948       .  S
Zn243       O950   1.949       .  S
Zn243       O952   2.133       .  S
Zn243       O250   2.118       .  S
Zn243       O254   1.965       .  S
Zn244       O246   1.945       .  S
Zn244       O249   2.135       .  S
Zn244       O252   2.004       .  S
Zn244       O255   1.932       .  S
Zn245       O950   1.911       .  S
Zn245       O253   2.117       .  S
Zn245       O256   2.053       .  S
Zn245       O257   2.110       .  S
O246       Zn946   1.904   1_455  S
O246       Zn947   1.985       .  S
O246       Zn949   1.897   1_455  S
O247        C259   1.275       .  A
O248       Zn947   2.131       .  S
O248        C260   1.289       .  A
O249        C261   1.284       .  A
O250        C259   1.293       .  A
O251       Zn946   1.937   1_455  S
O251        C261   1.264       .  A
O252        C260   1.281       .  A
O253        C966   1.290       .  A
O254        C263   1.260       .  A
O255        C262   1.259       .  A
O256        C263   1.286       .  A
O257        C264   1.281       .  A
O258        C264   1.246       .  A
C260        C306   1.516       .  S
C262        C273   1.466       .  S
C262        O957   1.293       .  A
C264        C340   1.487       .  S
N265        C269   1.362       .  A
N265        C266   1.369       .  A
N265        N272   1.447       .  S
C266        C267   1.387       .  A
C266        C338   1.502       .  S
C267        C268   1.347       .  A
C267        H270   1.080       .  S
C268        C269   1.369       .  A
C268        H271   1.073       .  S
N272        C276   1.366       .  A
N272        C273   1.379       .  A
C273        C274   1.364       .  A
C274        C275   1.356       .  A
C274        H981   1.083       .  S
C275        C276   1.391       .  A
C275        H982   1.063       .  S
C276        C296   1.504       .  S
H277        C978   1.083       .  S
H278        C979   1.084       .  S
Zn279       O283   1.920   1_455  S
Zn279       O992   1.984   1_455  S
Zn279       O295   1.924       .  S
Zn280       O989   1.964       .  S
Zn280       O287   2.010   1_655  S
Zn280       O643   2.061   1_655  S
Zn281       O987   1.970       .  S
Zn281       O286   2.139       .  S
Zn281       O644   1.907       .  S
Zn282       O635   1.890   1_445  S
Zn282       O290   2.063   1_455  S
Zn282       O293   2.109       .  S
Zn282       O646   2.047   1_545  S
O283       Zn985   1.961       .  S
O283       Zn634   1.903   1_655  S
O284        C296   1.270       .  A
O285       Zn984   1.951       .  S
O285        C649   1.269       .  A
O286        C298   1.278       .  A
O287        C296   1.276       .  A
O288       Zn983   1.971       .  S
O288        C298   1.274       .  A
O289        C649   1.278       .  A
O290       C1003   1.286       .  A
O291       Zn632   2.034   1_455  S
O291        C300   1.266   1_565  A
O292       Zn633   1.946   1_545  S
O292        C299   1.259       .  A
O294       Zn634   2.072       .  S
O294        C301   1.280       .  A
O295        C301   1.253       .  A
C297        O637   1.278       .  A
C297        O641   1.274       .  A
C298        C347   1.535       .  S
C299        O994   1.293       .  A
C300        C310   1.498       .  S
N302        C306   1.375       .  A
N302        C303   1.371       .  A
N302        N309   1.457       .  S
C303        C304   1.376       .  A
C304        C305   1.353       .  A
C304        H307   1.083       .  S
C305        C306   1.388       .  A
C305        H308   1.080       .  S
N309        C313   1.389       .  A
N309        C310   1.386       .  A
C310        C311   1.387       .  A
C311        C312   1.338       .  A
C312        C313   1.364       .  A
C313        C336   1.477       .  S
Zn316       O320   1.989       .  S
Zn316       O321   2.069       .  S
Zn316       O325   1.956       .  S
Zn317       O320   1.926       .  S
Zn317       O322   1.868       .  S
Zn317       O324   1.965       .  S
Zn318       O320   1.909       .  S
Zn318       O323   2.156       .  S
Zn318       O326   2.124       .  S
Zn318       O329   2.108       .  S
Zn319       O327   1.957       .  S
Zn319       O330   2.070       .  S
Zn319       O331   1.959       .  S
O321        C333   1.281       .  A
O322        C334   1.248       .  A
O323        C335   1.295       .  A
O324        C333   1.265       .  A
O325        C335   1.251       .  A
O326        C334   1.294       .  A
O327        C336   1.257       .  A
O328        C337   1.271       .  A
O330        C337   1.275       .  A
O331        C338   1.279       .  A
O332        C338   1.286       .  A
C333        C350   1.484       .  S
N339        C343   1.353       .  A
N339        C340   1.383       .  A
N339        N346   1.451       .  S
C340        C341   1.377       .  A
C341        C342   1.357       .  A
C341        H344   1.083       .  S
C342        C343   1.384       .  A
C342        H345   1.082       .  S
N346        C350   1.357       .  A
N346        C347   1.370       .  A
C347        C348   1.389       .  A
C348        C349   1.376       .  A
C349        C350   1.369       .  A
N353        C357   1.370       .  A
N353        C354   1.358       .  A
N353        N360   1.442       .  S
C354        C355   1.390       .  A
C354        C437   1.485       .  S
C355        C356   1.357       .  A
C355        H358   1.083       .  S
C356        C357   1.376       .  A
C356        H359   1.082       .  S
C357        C511   1.483       .  S
N360        C364   1.365       .  A
N360        C361   1.356       .  A
C361        C362   1.383       .  A
C361        C389   1.467       .  S
C362        C363   1.348       .  A
C362        H365   1.080       .  S
C363        C364   1.374       .  A
C363        H366   1.082       .  S
C364        C477   1.464       .  S
Zn367       O371   1.943       .  S
Zn367       O372   2.037       .  S
Zn367       O376   1.959       .  S
Zn367       O383   1.913       .  S
Zn368       O371   1.879       .  S
Zn368       O373   1.918   1_565  S
Zn368       O375   1.936       .  S
Zn369       O371   1.940       .  S
Zn369       O374   2.053       .  S
Zn369       O377   2.109       .  S
Zn370       O378   2.055       .  S
Zn370       O381   2.067       .  S
O372        C384   1.266       .  A
O374        C386   1.283       .  A
O375        C384   1.269       .  A
O376        C386   1.275       .  A
O378        C387   1.282       .  A
O379        C388   1.265       .  A
O380        C387   1.262       .  A
O381        C388   1.287       .  A
O382        C389   1.293       .  A
O383        C389   1.255       .  A
C384        C445   1.473       .  S
C385        C398   1.512       .  S
C386        C519   1.475       .  S
C387        C405   1.471       .  S
C388        C479   1.473       .  S
N390        C394   1.378       .  A
N390        C391   1.357       .  A
N390        N397   1.442       .  S
C391        C392   1.386       .  A
C391        C439   1.479       .  S
C392        C393   1.360       .  A
C392        H395   1.084       .  S
C393        C394   1.381       .  A
C393        H396   1.081       .  S
C394        C513   1.510       .  S
N397        C401   1.366       .  A
N397        C398   1.352       .  A
C399        C400   1.359       .  A
C399        H402   1.078       .  S
C400        H403   1.083   1_545  S
C401        C473   1.485       .  S
N404        C408   1.366       .  A
N404        C405   1.358       .  A
N404        N411   1.435       .  S
C405        C406   1.391       .  A
C406        C407   1.363       .  A
C406        H409   1.084       .  S
C407        C408   1.372       .  A
C407        H410   1.083       .  S
C408        C510   1.469       .  S
N411        C415   1.373       .  A
N411        C412   1.357       .  A
C412        C413   1.392       .  A
C412        C435   1.475       .  S
C413        C414   1.361       .  A
C413       H1120   1.084       .  S
C414        C415   1.370       .  A
C414       H1121   1.083       .  S
C415        C475   1.466       .  S
H416       C1117   1.085       .  S
H417       C1118   1.082       .  S
Zn418      O1126   1.875       .  S
Zn418       O423   1.990       .  S
Zn418      O1131   1.889       .  S
Zn418       O434   1.904       .  S
Zn419      O1126   1.919       .  S
Zn419      O1128   1.973       .  S
Zn419       O426   2.037       .  S
Zn419       O430   2.011       .  S
Zn420       O422   1.894   1_455  S
Zn420       O425   2.089       .  S
Zn420       O428   1.969       .  S
Zn420       O431   1.958       .  S
Zn421      O1126   1.872       .  S
Zn421       O429   1.992       .  S
Zn421       O432   2.003       .  S
Zn421       O433   2.004       .  S
O422      Zn1122   1.839       .  S
O422      Zn1123   1.930       .  S
O422      Zn1125   1.875       .  S
O423        C435   1.274       .  A
O424      Zn1123   2.066   1_455  S
O424        C436   1.278       .  A
O425        C437   1.282       .  A
O426        C435   1.280       .  A
O427      Zn1122   1.941   1_455  S
O427        C437   1.271       .  A
O428        C436   1.284       .  A
O429       C1142   1.277       .  A
O430        C439   1.270       .  A
O431        C438   1.261       .  A
O432        C439   1.275       .  A
O433        C440   1.272       .  A
O434        C440   1.252       .  A
C436        C482   1.510       .  S
C438        C449   1.443       .  S
C438       O1133   1.275       .  A
C440        C516   1.467       .  S
N441        C445   1.341       .  A
N441        C442   1.354       .  A
N441        N448   1.417       .  S
C442        C443   1.376       .  A
C442        C514   1.485       .  S
C443        C444   1.368       .  A
C443        H446   1.076       .  S
C444        C445   1.379       .  A
C444        H447   1.072       .  S
N448        C452   1.362       .  A
N448        C449   1.332       .  A
C449        C450   1.385       .  A
C450        C451   1.370       .  A
C450       H1157   1.080       .  S
C451        C452   1.377       .  A
C451       H1158   1.083       .  S
C452        C472   1.478       .  S
H453       C1154   1.084       .  S
H454       C1155   1.083       .  S
Zn455       O459   1.971       .  S
Zn455       O636   1.989   1_554  S
Zn455      O1168   2.081       .  S
Zn455       O471   1.930   1_655  S
Zn456       O635   1.977       .  S
Zn456      O1165   2.090       .  S
Zn456       O463   2.083   1_655  S
Zn457      O1163   1.919   1_554  S
Zn457       O462   1.979       .  S
Zn457       O641   1.952   1_554  S
Zn458       O466   2.074   1_455  S
Zn458       O469   2.075   1_554  S
O459       Zn632   1.962   1_554  S
O459      Zn1161   1.920       .  S
O460       Zn631   1.988   1_455  S
O460        C472   1.275       .  A
O461      Zn1160   2.062       .  S
O462        C474   1.273       .  A
O463        C472   1.288       .  A
O464      Zn1159   2.123       .  S
O464        C474   1.276       .  A
O465       Zn633   1.948       .  S
O466       C1179   1.290       .  A
O467        C476   1.270       .  A
O468        C475   1.255       .  A
O469        C652   1.280       .  A
O470        C477   1.281       .  A
O471        C477   1.258       .  A
C474        C523   1.530       .  S
C475       O1170   1.294       .  A
C476        C486   1.488       .  S
C476        O645   1.277       .  A
N478        C482   1.360       .  A
N478        C479   1.359       .  A
N478        N485   1.443       .  S
C479        C480   1.376       .  A
C480        C481   1.362       .  A
C480        H483   1.083       .  S
C481        C482   1.392       .  A
C481        H484   1.081       .  S
N485        C489   1.387       .  A
N485        C486   1.374       .  A
C486        C487   1.387       .  A
C487        C488   1.347       .  A
C487        H666   1.084       .  S
C488        C489   1.373       .  A
C488        H667   1.083       .  S
C489        C512   1.500       .  S
H490        C663   1.083       .  S
H491        C664   1.083       .  S
Zn492       O496   1.950   1_554  S
Zn492       O497   1.988       .  S
Zn492       O501   1.931       .  S
Zn492       O684   1.982   1_554  S
Zn493       O496   1.924   1_554  S
Zn493       O498   1.930       .  S
Zn493       O500   2.066       .  S
Zn493       O680   1.977   1_554  S
Zn494       O496   1.909   1_554  S
Zn494       O499   2.102       .  S
Zn494       O502   2.112       .  S
Zn494       O505   2.077   1_554  S
Zn495       O672   1.972       .  S
Zn495       O503   2.053       .  S
Zn495       O506   2.135       .  S
Zn495       O507   2.129       .  S
O496       Zn671   1.984       .  S
O497        C509   1.271       .  A
O498        C510   1.258       .  A
O499        C511   1.286       .  A
O500        C509   1.272       .  A
O501        C511   1.251       .  A
O502        C510   1.292       .  A
O503        C512   1.267       .  A
O504       Zn669   1.986       .  S
O504        C513   1.282       .  A
O505        C688   1.282       .  A
O506        C513   1.288       .  A
O507        C514   1.293       .  A
O508       Zn668   1.961       .  S
O508        C514   1.270       .  A
C509        C526   1.491       .  S
C512        O681   1.283       .  A
N515        C519   1.365       .  A
N515        C516   1.346       .  A
N515        N522   1.448       .  S
C516        C517   1.386       .  A
C517        C518   1.360       .  A
C517        H520   1.083       .  S
C518        C519   1.379       .  A
C518        H521   1.083       .  S
N522        C526   1.362       .  A
N522        C523   1.365       .  A
C523        C524   1.389       .  A
C524        C525   1.373       .  A
C524        H703   1.077       .  S
C525        C526   1.375       .  A
C525        H704   1.071       .  S
H527        C700   1.074       .  S
H528        C701   1.075       .  S
N529        C533   1.371       .  A
N529        C530   1.365       .  A
N529        N536   1.446       .  S
C530        C531   1.389       .  A
C530        C613   1.495       .  S
C531        C532   1.357       .  A
C531        H534   1.083       .  S
C532        C533   1.375       .  A
C532        H535   1.082       .  S
C533        C687   1.487       .  S
N536        C540   1.371       .  A
N536        C537   1.360       .  A
C537        C538   1.382       .  A
C537        C565   1.463       .  S
C538        C539   1.346       .  A
C538        H541   1.081       .  S
C539        C540   1.374       .  A
C539        H542   1.082       .  S
C540        C653   1.467       .  S
Zn543       O547   1.945       .  S
Zn543       O548   2.045       .  S
Zn543       O552   1.952       .  S
Zn543       O559   1.908       .  S
Zn544       O547   1.903       .  S
Zn544       O549   1.982   1_565  S
Zn544       O551   1.985       .  S
Zn545       O547   1.938       .  S
Zn545       O550   2.044       .  S
Zn545       O553   2.090       .  S
Zn546       O554   2.056       .  S
Zn546       O557   2.093       .  S
O548        C560   1.266       .  A
O550        C562   1.284       .  A
O551        C560   1.278       .  A
O552        C562   1.274       .  A
O554        C563   1.278       .  A
O555        C564   1.265       .  A
O556        C563   1.260       .  A
O557        C564   1.293       .  A
O558        C565   1.293       .  A
O559        C565   1.254       .  A
C560        C621   1.495       .  S
C561        C574   1.496       .  S
C562        C695   1.469       .  S
C563        C581   1.459       .  S
C564        C655   1.459       .  S
N566        C570   1.374       .  A
N566        C567   1.372       .  A
N566        N573   1.452       .  S
C567        C568   1.375       .  A
C567        C615   1.479       .  S
C568        C569   1.358       .  A
C568        H571   1.083       .  S
C569        C570   1.389       .  A
C569        H572   1.080       .  S
C570        C689   1.525       .  S
N573        C577   1.377       .  A
N573        C574   1.366       .  A
C575        C576   1.363       .  A
C575        H578   1.081       .  S
C576        H579   1.083       .  S
C577        C649   1.508       .  S
N580        C584   1.370       .  A
N580        C581   1.355       .  A
N580        N587   1.436       .  S
C581        C582   1.388       .  A
C582        C583   1.359       .  A
C582        H585   1.083       .  S
C583        C584   1.371       .  A
C583        H586   1.081       .  S
C584        C686   1.465       .  S
N587        C591   1.372       .  A
N587        C588   1.357       .  A
C588        C589   1.393       .  A
C588        C611   1.478       .  S
C589        C590   1.361       .  A
C589       H1296   1.084       .  S
C590        C591   1.370       .  A
C590       H1297   1.083       .  S
C591        C651   1.464       .  S
H592       C1293   1.085       .  S
H593       C1294   1.083       .  S
Zn594      O1302   1.884       .  S
Zn594       O599   1.990       .  S
Zn594      O1307   1.934       .  S
Zn594       O610   1.917       .  S
Zn595      O1302   1.948       .  S
Zn595      O1304   2.097       .  S
Zn595       O602   2.089       .  S
Zn595       O606   2.021       .  S
Zn596       O598   1.899   1_455  S
Zn596       O601   2.092       .  S
Zn596       O604   1.973       .  S
Zn596       O607   1.945       .  S
Zn597      O1302   1.923       .  S
Zn597       O605   1.968       .  S
Zn597       O608   2.022       .  S
Zn597       O609   2.003       .  S
O598      Zn1298   1.844       .  S
O598      Zn1299   1.942       .  S
O598      Zn1301   1.868       .  S
O599        C611   1.273       .  A
O600      Zn1299   2.077   1_455  S
O600        C612   1.277       .  A
O601        C613   1.280       .  A
O602        C611   1.291       .  A
O603      Zn1298   1.970   1_455  S
O603        C613   1.273       .  A
O604        C612   1.282       .  A
O605       C1318   1.273       .  A
O606        C615   1.270       .  A
O607        C614   1.262       .  A
O608        C615   1.275       .  A
O609        C616   1.269       .  A
O610        C616   1.249       .  A
C612        C658   1.509       .  S
C614        C625   1.438       .  S
C614       O1309   1.278   1_455  A
C616        C692   1.457       .  S
N617        C621   1.350       .  A
N617        C618   1.353       .  A
N617        N624   1.427       .  S
C618        C619   1.377       .  A
C618        C690   1.489       .  S
C619        C620   1.374       .  A
C619        H622   1.073       .  S
C620        C621   1.376       .  A
C620        H623   1.072       .  S
N624        C628   1.371       .  A
N624        C625   1.337       .  A
C625        C626   1.382       .  A
C626        C627   1.361       .  A
C626       H1333   1.081       .  S
C627        C628   1.377       .  A
C627       H1334   1.083   1_455  S
C628        C648   1.482       .  S
H629       C1330   1.084       .  S
H630       C1331   1.083       .  S
Zn631       O635   1.975       .  S
Zn631      O1344   2.058       .  S
Zn631       O647   1.934   1_655  S
Zn632      O1341   2.093   1_565  S
Zn632       O639   2.087   1_655  S
Zn633      O1339   1.910       .  S
Zn633       O638   1.983       .  S
Zn634       O642   2.045   1_455  S
Zn634       O645   2.054       .  S
O635      Zn1337   1.910       .  S
O636        C648   1.277   1_655  A
O637      Zn1336   2.079       .  S
O638        C650   1.272       .  A
O639        C648   1.287       .  A
O640      Zn1335   2.120       .  S
O640        C650   1.275       .  A
O642       C1355   1.286       .  A
O643        C652   1.273       .  A
O644        C651   1.254       .  A
O646        C653   1.284       .  A
O647        C653   1.257       .  A
C650        C699   1.529       .  S
C651       O1346   1.289       .  A
C652        C662   1.504       .  S
N654        C658   1.365       .  A
N654        C655   1.364       .  A
N654        N661   1.446       .  S
C655        C656   1.370       .  A
C656        C657   1.357       .  A
C656        H659   1.083       .  S
C657        C658   1.394       .  A
C657        H660   1.081       .  S
N661        C665   1.382       .  A
N661        C662   1.377       .  A
C662        C663   1.391       .  A
C663        C664   1.355       .  A
C664        C665   1.371       .  A
C665        C688   1.492       .  S
Zn668       O672   1.952       .  S
Zn668       O673   1.981       .  S
Zn668       O677   1.942       .  S
Zn669       O672   1.930       .  S
Zn669       O674   1.908       .  S
Zn669       O676   2.063       .  S
Zn670       O672   1.912       .  S
Zn670       O675   2.105       .  S
Zn670       O678   2.110       .  S
Zn670       O681   2.088       .  S
Zn671       O679   2.037       .  S
Zn671       O682   2.129       .  S
Zn671       O683   2.127       .  S
O673        C685   1.270       .  A
O674        C686   1.254       .  A
O675        C687   1.286       .  A
O676        C685   1.271       .  A
O677        C687   1.253       .  A
O678        C686   1.293       .  A
O679        C688   1.265       .  A
O680        C689   1.283       .  A
O682        C689   1.283       .  A
O683        C690   1.293       .  A
O684        C690   1.272       .  A
C685        C702   1.489       .  S
N691        C695   1.363       .  A
N691        C692   1.343       .  A
N691        N698   1.446       .  S
C692        C693   1.386       .  A
C693        C694   1.360       .  A
C693        H696   1.082       .  S
C694        C695   1.378       .  A
C694        H697   1.083       .  S
N698        C702   1.361       .  A
N698        C699   1.365       .  A
C699        C700   1.387       .  A
C700        C701   1.371       .  A
C701        C702   1.379       .  A
N705        C709   1.376       .  A
N705        C706   1.359       .  A
N705        N712   1.444       .  S
C706        C707   1.389       .  A
C706        C789   1.484       .  S
C707        C708   1.349       .  A
C707        H710   1.079       .  S
C708        C709   1.373       .  A
C708        H711   1.083       .  S
C709        C863   1.481       .  S
N712        C716   1.374       .  A
N712        C713   1.366       .  A
C713        C714   1.390       .  A
C713        C741   1.500       .  S
C714        C715   1.359       .  A
C714        H717   1.084       .  S
C715        C716   1.374       .  A
C715        H718   1.083       .  S
C716        C829   1.485       .  S
Zn719       O723   1.912       .  S
Zn719       O724   1.960       .  S
Zn719       O728   1.935       .  S
Zn719       O735   2.018       .  S
Zn720       O723   1.982       .  S
Zn720       O725   2.078       .  S
Zn720       O727   2.127       .  S
Zn720      O1083   1.955       .  S
Zn721       O723   1.882       .  S
Zn721       O726   1.996       .  S
Zn721       O729   1.943       .  S
Zn721      O1084   1.925       .  S
Zn722      O1075   1.864   1_545  S
Zn722       O730   2.083       .  S
Zn722       O733   2.092       .  S
Zn722      O1086   2.073   1_545  S
O723      Zn1074   1.859       .  S
O724        C736   1.271       .  A
O725       C1089   1.282       .  A
O726        C738   1.274       .  A
O727        C736   1.280       .  A
O728        C738   1.259       .  A
O729       C1089   1.274       .  A
O730        C739   1.285       .  A
O731      Zn1072   1.945   1_545  S
O731        C740   1.254       .  A
O732      Zn1073   2.018   1_545  S
O732        C739   1.267       .  A
O733        C740   1.287       .  A
O734      Zn1074   2.040       .  S
O734        C741   1.282       .  A
O735        C741   1.269       .  A
C736        C797   1.513       .  S
C737        C750   1.484       .  S
C737       O1077   1.267       .  A
C737       O1081   1.290       .  A
C738        C871   1.458       .  S
C739        C757   1.494       .  S
C740        C831   1.476       .  S
N742        C746   1.369       .  A
N742        C743   1.363       .  A
N742        N749   1.438       .  S
C743        C744   1.384       .  A
C743        C791   1.478       .  S
C744        C745   1.357       .  A
C744        H747   1.084       .  S
C745        C746   1.379       .  A
C745        H748   1.081       .  S
C746        C865   1.490       .  S
N749        C753   1.369       .  A
N749        C750   1.353       .  A
C750       C1103   1.388       .  A
C751       C1102   1.390       .  A
C751        C752   1.353       .  A
C751        H754   1.084       .  S
C752       C1105   1.387       .  A
C752        H755   1.080       .  S
C753       C1104   1.383       .  A
C753        C825   1.496       .  S
N756        C760   1.375       .  A
N756        C757   1.375       .  A
N756        N763   1.446       .  S
C757        C758   1.386       .  A
C758        C759   1.353       .  A
C758        H761   1.076   1_545  S
C759        C760   1.372       .  A
C759        H762   1.083       .  S
C760        C862   1.485       .  S
N763        C767   1.373       .  A
N763        C764   1.367       .  A
C764        C765   1.388       .  A
C764        C787   1.470       .  S
C765        C766   1.340       .  A
C766        C767   1.364       .  A
C767        C827   1.448       .  S
Zn770       O775   1.983       .  S
Zn770       O786   1.938       .  S
Zn771       O778   2.080   1_455  S
Zn771       O782   1.975   1_455  S
Zn772       O774   1.923       .  S
Zn772       O777   2.083       .  S
Zn772       O780   1.987       .  S
Zn772       O783   1.980       .  S
Zn773       O781   2.099   1_655  S
Zn773       O784   2.053       .  S
Zn773       O785   2.078       .  S
O775        C787   1.269       .  A
O776        C788   1.290       .  A
O777        C789   1.278       .  A
O778        C787   1.288       .  A
O779        C789   1.270       .  A
O780        C788   1.277       .  A
O782        C791   1.260       .  A
O783        C790   1.265       .  A
O784        C791   1.285       .  A
O785        C792   1.280       .  A
O786        C792   1.251       .  A
C788        C834   1.498       .  S
C790        C801   1.489       .  S
C792        C868   1.483       .  S
N793        C797   1.363       .  A
N793        C794   1.380       .  A
N793        N800   1.457       .  S
C794        C795   1.382       .  A
C794        C866   1.523       .  S
C795        C796   1.370       .  A
C795        H798   1.075       .  S
C796        C797   1.392       .  A
C796        H799   1.078       .  S
N800        C804   1.364       .  A
N800        C801   1.373       .  A
C801        C802   1.375       .  A
C802        C803   1.359       .  A
C803        C804   1.390       .  A
C804        C824   1.512       .  S
Zn807       O811   1.951       .  S
Zn807       O988   2.055   1_554  S
Zn807       O823   1.968       .  S
Zn808       O987   1.990       .  S
Zn808       O815   2.094       .  S
Zn808      O1171   2.012       .  S
Zn809       O814   2.103       .  S
Zn809       O993   2.098   1_554  S
Zn809      O1172   1.956       .  S
Zn810      O1163   1.912   1_554  S
Zn810       O818   2.119   1_565  S
Zn810       O821   2.120   1_564  S
Zn810      O1174   2.076       .  S
O811       Zn984   1.910   1_554  S
O811      Zn1162   1.875       .  S
O812       Zn983   1.930       .  S
O812        C824   1.273       .  A
O813       C1177   1.273       .  A
O814        C826   1.287       .  A
O815        C824   1.273       .  A
O816        C826   1.278       .  A
O817       Zn985   2.078       .  S
O817       C1177   1.273       .  A
O819      Zn1160   2.017       .  S
O819        C828   1.266   1_565  A
O820      Zn1161   1.904   1_545  S
O820        C827   1.253       .  A
O821       C1004   1.285       .  A
O822      Zn1162   2.116       .  S
O822        C829   1.291       .  A
O823        C829   1.260       .  A
C825       O1165   1.277   1_545  A
C825       O1169   1.273   1_545  A
C826        C875   1.503       .  S
C828        C838   1.501       .  S
C828        O997   1.286       .  A
N830        C834   1.371       .  A
N830        C831   1.372       .  A
N830        N837   1.452       .  S
C831        C832   1.373       .  A
C832        C833   1.349       .  A
C832        H835   1.083       .  S
C833        C834   1.387       .  A
C833        H836   1.078       .  S
N837        C841   1.385       .  A
N837        C838   1.385       .  A
C838        C839   1.380       .  A
C839        C840   1.343       .  A
C839       H1018   1.079   1_545  S
C840        C841   1.366       .  A
C840       H1019   1.083       .  S
C841        C864   1.479       .  S
H842       C1015   1.083   1_565  S
H843       C1016   1.084       .  S
Zn844       O848   2.024       .  S
Zn844       O849   2.067       .  S
Zn844       O853   1.951       .  S
Zn844      O1036   2.056   1_554  S
Zn845       O848   1.897       .  S
Zn845       O850   1.985       .  S
Zn845       O852   1.944       .  S
Zn845      O1032   1.940   1_554  S
Zn846       O848   1.879       .  S
Zn846       O851   2.108       .  S
Zn846       O854   2.094       .  S
Zn846       O857   2.082   1_554  S
Zn847      O1024   1.971       .  S
Zn847       O855   1.983       .  S
Zn847       O858   2.149       .  S
Zn847       O859   2.062       .  S
O848      Zn1023   1.965   1_554  S
O849        C861   1.266       .  A
O850        C862   1.265       .  A
O851        C863   1.288       .  A
O852        C861   1.264       .  A
O853        C863   1.251       .  A
O854        C862   1.291       .  A
O855        C864   1.262       .  A
O856      Zn1021   1.916       .  S
O856        C865   1.261       .  A
O857       C1040   1.285       .  A
O858        C865   1.289       .  A
O859        C866   1.288       .  A
O860      Zn1020   2.118       .  S
O860        C866   1.289       .  A
C861        C878   1.495       .  S
C864       O1033   1.286       .  A
N867        C871   1.353       .  A
N867        C868   1.372       .  A
N867        N874   1.446       .  S
C868        C869   1.380       .  A
C869        C870   1.357       .  A
C869        H872   1.083       .  S
C870        C871   1.383       .  A
C870        H873   1.083       .  S
N874        C878   1.364       .  A
N874        C875   1.360       .  A
C875        C876   1.382       .  A
C876        C877   1.360       .  A
C876       H1055   1.074       .  S
C877        C878   1.379       .  A
C877       H1056   1.077       .  S
H879       C1052   1.079       .  S
H880       C1053   1.080       .  S
N881        C885   1.376       .  A
N881        C882   1.366       .  A
N881        N888   1.447       .  S
C882        C883   1.390       .  A
C882        C965   1.493       .  S
C883        C884   1.342       .  A
C883        H886   1.074       .  S
C884        C885   1.365       .  A
C884        H887   1.083       .  S
C885       C1039   1.456       .  S
N888        C892   1.363       .  A
N888        C889   1.364       .  A
C889        C890   1.384       .  A
C889        C917   1.489       .  S
C890        C891   1.357       .  A
C890        H893   1.083       .  S
C891        C892   1.375       .  A
C891        H894   1.083       .  S
C892       C1005   1.463       .  S
Zn895       O899   1.906       .  S
Zn895       O900   1.903       .  S
Zn895       O904   1.969       .  S
Zn895       O911   1.930       .  S
Zn896       O899   1.939       .  S
Zn896       O901   2.101       .  S
Zn896       O903   2.095       .  S
Zn896      O1259   1.987       .  S
Zn897       O899   1.893       .  S
Zn897       O902   1.999       .  S
Zn897       O905   1.968       .  S
Zn897      O1260   1.952       .  S
Zn898      O1251   1.844   1_545  S
Zn898       O906   2.099       .  S
Zn898       O909   2.109       .  S
Zn898      O1262   2.082   1_545  S
O899      Zn1250   1.881       .  S
O900        C912   1.261       .  A
O901       C1265   1.282       .  A
O902        C914   1.280       .  A
O903        C912   1.288       .  A
O904        C914   1.263       .  A
O905       C1265   1.277       .  A
O906        C915   1.289       .  A
O907      Zn1248   1.959   1_545  S
O907        C916   1.255       .  A
O908      Zn1249   2.006   1_545  S
O908        C915   1.267       .  A
O909        C916   1.289       .  A
O910      Zn1250   2.088       .  S
O910        C917   1.286       .  A
O911        C917   1.256       .  A
C912        C973   1.460       .  S
C913        C926   1.489       .  S
C913       O1253   1.267       .  A
C913       O1257   1.285       .  A
C914       C1047   1.456       .  S
C915        C933   1.491       .  S
C916       C1007   1.488       .  S
N918        C922   1.366       .  A
N918        C919   1.360       .  A
N918        N925   1.436       .  S
C919        C920   1.386       .  A
C919        C967   1.481       .  S
C920        C921   1.362       .  A
C920        H923   1.084   1_655  S
C921        C922   1.378       .  A
C921        H924   1.082       .  S
C922       C1041   1.488       .  S
N925        C929   1.369       .  A
N925        C926   1.351       .  A
C926       C1279   1.391       .  A
C927       C1278   1.388       .  A
C927        C928   1.352       .  A
C927        H930   1.084       .  S
C928       C1281   1.388       .  A
C928        H931   1.079       .  S
C929       C1280   1.380       .  A
C929       C1001   1.490       .  S
N932        C936   1.382       .  A
N932        C933   1.375       .  A
N932        N939   1.448       .  S
C933        C934   1.382       .  A
C934        C935   1.349       .  A
C934        H937   1.079       .  S
C935        C936   1.374       .  A
C935        H938   1.083       .  S
C936       C1038   1.494       .  S
N939        C943   1.374       .  A
N939        C940   1.372       .  A
C940        C941   1.387       .  A
C940        C963   1.485       .  S
C941        C942   1.339       .  A
C942        C943   1.364       .  A
C943       C1003   1.454       .  S
Zn946       O951   1.967       .  S
Zn946       O962   1.946       .  S
Zn947       O954   2.125   1_455  S
Zn947       O958   1.995   1_455  S
Zn948       O950   1.923       .  S
Zn948       O953   2.098       .  S
Zn948       O956   1.964       .  S
Zn948       O959   1.901       .  S
Zn949       O957   2.118   1_655  S
Zn949       O960   2.058       .  S
Zn949       O961   2.117       .  S
O951        C963   1.270       .  A
O952        C964   1.290       .  A
O953        C965   1.278       .  A
O954        C963   1.291       .  A
O955        C965   1.263       .  A
O956        C964   1.274       .  A
O958        C967   1.263       .  A
O959        C966   1.258       .  A
O960        C967   1.284       .  A
O961        C968   1.284       .  A
O962        C968   1.251       .  A
C964       C1010   1.505       .  S
C966        C977   1.461       .  S
C968       C1044   1.492       .  S
N969        C973   1.351       .  A
N969        C970   1.360       .  A
N969        N976   1.442       .  S
C970        C971   1.389       .  A
C970       C1042   1.515       .  S
C971        C972   1.369       .  A
C971        H974   1.079       .  S
C972        C973   1.378       .  A
C972        H975   1.082       .  S
N976        C980   1.355       .  A
N976        C977   1.377       .  A
C977        C978   1.375       .  A
C978        C979   1.355       .  A
C979        C980   1.392       .  A
C980       C1000   1.482       .  S
Zn983       O987   1.888       .  S
Zn983       O999   1.938       .  S
Zn984       O991   1.906       .  S
Zn984      O1347   2.021       .  S
Zn985       O990   2.075       .  S
Zn985      O1348   1.950       .  S
Zn986      O1339   1.912   1_545  S
Zn986       O994   2.118       .  S
Zn986       O997   2.132       .  S
Zn986      O1350   2.092   1_545  S
O987      Zn1338   1.895       .  S
O988       C1000   1.276       .  A
O989       C1353   1.269       .  A
O990       C1002   1.285       .  A
O991       C1000   1.262       .  A
O992       C1002   1.278       .  A
O993       C1353   1.274       .  A
O995      Zn1336   2.010       .  S
O995       C1004   1.264   1_565  A
O996      Zn1337   1.933   1_545  S
O996       C1003   1.260       .  A
O998      Zn1338   2.087       .  S
O998       C1005   1.289       .  A
O999       C1005   1.259       .  A
C1001      O1341   1.284       .  A
C1001      O1345   1.276   1_545  A
C1002      C1051   1.494       .  S
C1004      C1014   1.494       .  S
N1006      C1010   1.369       .  A
N1006      C1007   1.374       .  A
N1006      N1013   1.455       .  S
C1007      C1008   1.377       .  A
C1008      C1009   1.351       .  A
C1008      H1011   1.083       .  S
C1009      C1010   1.388       .  A
C1009      H1012   1.082       .  S
N1013      C1017   1.391       .  A
N1013      C1014   1.384       .  A
C1014      C1015   1.376       .  A
C1015      C1016   1.340       .  A
C1016      C1017   1.372       .  A
C1017      C1040   1.492       .  S
Zn1020     O1024   2.003       .  S
Zn1020     O1025   2.115       .  S
Zn1020     O1029   1.919       .  S
Zn1021     O1024   1.912       .  S
Zn1021     O1026   1.999       .  S
Zn1021     O1028   1.931       .  S
Zn1022     O1024   1.888       .  S
Zn1022     O1027   2.090       .  S
Zn1022     O1030   2.098       .  S
Zn1022     O1033   2.097       .  S
Zn1023     O1031   2.027       .  S
Zn1023     O1034   2.129       .  S
Zn1023     O1035   2.031       .  S
O1025      C1037   1.272       .  A
O1026      C1038   1.260       .  A
O1027      C1039   1.289       .  A
O1028      C1037   1.263       .  A
O1029      C1039   1.253       .  A
O1030      C1038   1.289       .  A
O1031      C1040   1.265       .  A
O1032      C1041   1.263       .  A
O1034      C1041   1.286       .  A
O1035      C1042   1.292       .  A
O1036      C1042   1.279       .  A
C1037      C1054   1.505       .  S
N1043      C1047   1.355       .  A
N1043      C1044   1.377       .  A
N1043      N1050   1.444       .  S
C1044      C1045   1.378       .  A
C1045      C1046   1.361       .  A
C1045      H1048   1.083       .  S
C1046      C1047   1.383       .  A
C1046      H1049   1.084       .  S
N1050      C1054   1.366       .  A
N1050      C1051   1.360       .  A
C1051      C1052   1.379       .  A
C1052      C1053   1.360       .  A
C1053      C1054   1.384       .  A
N1057      C1061   1.380       .  A
N1057      C1058   1.356       .  A
N1057      N1064   1.451       .  S
C1058      C1059   1.382       .  A
C1058      C1141   1.468       .  S
C1059      C1060   1.350       .  A
C1059      H1062   1.084       .  S
C1060      C1061   1.379       .  A
C1060      H1063   1.079       .  S
C1061      C1215   1.506       .  S
N1064      C1068   1.372       .  A
N1064      C1065   1.362       .  A
C1065      C1066   1.387       .  A
C1065      C1093   1.480       .  S
C1066      C1067   1.348       .  A
C1066      H1069   1.081       .  S
C1067      C1068   1.372       .  A
C1067      H1070   1.082       .  S
C1068      C1181   1.471       .  S
Zn1071     O1075   1.936       .  S
Zn1071     O1076   2.048       .  S
Zn1071     O1080   1.938       .  S
Zn1071     O1087   1.958       .  S
Zn1072     O1075   1.865       .  S
Zn1072     O1077   1.939   1_565  S
Zn1072     O1079   1.938       .  S
Zn1073     O1075   1.933       .  S
Zn1073     O1078   2.069       .  S
Zn1073     O1081   2.104   1_565  S
Zn1074     O1082   2.083       .  S
Zn1074     O1085   2.055       .  S
O1076      C1088   1.270       .  A
O1078      C1090   1.283       .  A
O1079      C1088   1.271       .  A
O1080      C1090   1.273       .  A
O1082      C1091   1.287       .  A
O1083      C1092   1.257       .  A
O1084      C1091   1.255       .  A
O1085      C1092   1.284       .  A
O1086      C1093   1.292       .  A
O1087      C1093   1.262       .  A
C1088      C1149   1.473       .  S
C1089      C1102   1.493       .  S
C1090      C1223   1.475       .  S
C1091      C1109   1.465       .  S
C1092      C1183   1.463       .  S
N1094      C1098   1.368       .  A
N1094      C1095   1.363       .  A
N1094      N1101   1.450       .  S
C1095      C1096   1.375       .  A
C1095      C1143   1.463       .  S
C1096      C1097   1.357       .  A
C1096      H1099   1.081       .  S
C1097      C1098   1.386       .  A
C1097      H1100   1.075       .  S
C1098      C1217   1.519       .  S
N1101      C1105   1.378       .  A
N1101      C1102   1.362       .  A
C1103      C1104   1.362       .  A
C1103      H1106   1.080       .  S
C1104      H1107   1.081       .  S
C1105      C1177   1.493       .  S
N1108      C1112   1.361       .  A
N1108      C1109   1.355       .  A
N1108      N1115   1.438       .  S
C1109      C1110   1.389       .  A
C1110      C1111   1.360       .  A
C1110      H1113   1.084       .  S
C1111      C1112   1.370       .  A
C1111      H1114   1.083       .  S
C1112      C1214   1.447       .  S
N1115      C1119   1.373       .  A
N1115      C1116   1.363       .  A
C1116      C1117   1.390       .  A
C1116      C1139   1.476       .  S
C1117      C1118   1.352       .  A
C1118      C1119   1.370       .  A
C1119      C1179   1.468       .  S
Zn1122     O1127   2.001       .  S
Zn1122     O1138   1.917       .  S
Zn1123     O1130   2.079       .  S
Zn1123     O1134   1.997       .  S
Zn1124     O1126   1.922       .  S
Zn1124     O1129   2.135       .  S
Zn1124     O1132   2.092       .  S
Zn1124     O1135   1.962       .  S
Zn1125     O1133   1.972   1_655  S
Zn1125     O1136   1.987       .  S
Zn1125     O1137   1.999       .  S
O1127      C1139   1.272       .  A
O1128      C1140   1.274       .  A
O1129      C1141   1.293       .  A
O1130      C1139   1.289       .  A
O1131      C1141   1.259       .  A
O1132      C1140   1.287       .  A
O1134      C1143   1.267       .  A
O1135      C1142   1.264       .  A
O1136      C1143   1.270       .  A
O1137      C1144   1.272       .  A
O1138      C1144   1.249       .  A
C1140      C1186   1.496       .  S
C1142      C1153   1.448       .  S
C1144      C1220   1.456       .  S
N1145      C1149   1.352       .  A
N1145      C1146   1.355       .  A
N1145      N1152   1.426       .  S
C1146      C1147   1.375       .  A
C1146      C1218   1.481       .  S
C1147      C1148   1.348       .  A
C1147      H1150   1.081       .  S
C1148      C1149   1.385       .  A
C1148      H1151   1.077       .  S
N1152      C1156   1.374       .  A
N1152      C1153   1.344       .  A
C1153      C1154   1.387       .  A
C1154      C1155   1.364       .  A
C1155      C1156   1.376       .  A
C1156      C1176   1.488       .  S
Zn1159     O1163   2.001   1_554  S
Zn1159     O1340   2.041   1_554  S
Zn1159     O1175   1.916       .  S
Zn1160     O1339   1.978       .  S
Zn1160     O1167   2.079       .  S
Zn1161     O1166   2.026       .  S
Zn1161     O1345   1.969   1_554  S
Zn1162     O1170   2.106       .  S
Zn1162     O1173   2.075   1_554  S
O1163     Zn1336   1.987       .  S
O1164     Zn1335   2.023       .  S
O1164      C1176   1.281       .  A
O1166      C1178   1.274       .  A
O1167      C1176   1.284       .  A
O1168      C1178   1.274       .  A
O1169     Zn1337   1.953       .  S
O1171      C1180   1.262       .  A
O1172      C1179   1.262       .  A
O1173      C1356   1.282       .  A
O1174      C1181   1.288       .  A
O1175      C1181   1.254       .  A
C1178      C1227   1.510       .  S
C1180      C1190   1.482       .  S
C1180      O1349   1.279       .  A
N1182      C1186   1.370       .  A
N1182      C1183   1.370       .  A
N1182      N1189   1.451       .  S
C1183      C1184   1.373       .  A
C1184      C1185   1.351       .  A
C1184      H1187   1.083       .  S
C1185      C1186   1.387       .  A
C1185      H1188   1.083       .  S
N1189      C1193   1.378       .  A
N1189      C1190   1.374       .  A
C1190      C1191   1.376       .  A
C1191      C1192   1.353       .  A
C1191      H1370   1.083       .  S
C1192      C1193   1.384       .  A
C1192      H1371   1.084       .  S
C1193      C1216   1.498       .  S
H1194      C1367   1.084       .  S
H1195      C1368   1.083       .  S
Zn1196     O1200   1.906       .  S
Zn1196     O1201   1.957       .  S
Zn1196     O1205   1.960       .  S
Zn1196     O1388   1.891   1_554  S
Zn1197     O1200   1.928       .  S
Zn1197     O1202   1.875       .  S
Zn1197     O1204   2.099       .  S
Zn1197     O1384   1.992   1_554  S
Zn1198     O1200   1.885       .  S
Zn1198     O1203   2.122       .  S
Zn1198     O1206   2.082       .  S
Zn1198     O1209   2.094   1_554  S
Zn1199     O1376   1.980       .  S
Zn1199     O1207   1.991       .  S
Zn1199     O1210   2.108       .  S
Zn1199     O1211   2.138       .  S
O1200     Zn1375   1.955   1_554  S
O1201      C1213   1.266       .  A
O1202      C1214   1.252       .  A
O1203      C1215   1.292       .  A
O1204      C1213   1.268       .  A
O1205      C1215   1.256       .  A
O1206      C1214   1.289       .  A
O1207      C1216   1.262       .  A
O1208     Zn1373   1.962       .  S
O1208      C1217   1.282       .  A
O1209      C1392   1.284       .  A
O1210      C1217   1.282       .  A
O1211      C1218   1.288       .  A
O1212     Zn1372   1.863       .  S
O1212      C1218   1.255       .  A
C1213      C1230   1.500       .  S
C1216      O1385   1.292       .  A
N1219      C1223   1.367       .  A
N1219      C1220   1.351       .  A
N1219      N1226   1.444       .  S
C1220      C1221   1.382       .  A
C1221      C1222   1.353       .  A
C1221      H1224   1.083       .  S
C1222      C1223   1.382       .  A
C1222      H1225   1.083       .  S
N1226      C1230   1.366       .  A
N1226      C1227   1.364       .  A
C1227      C1228   1.382       .  A
C1228      C1229   1.364       .  A
C1228      H1407   1.072       .  S
C1229      C1230   1.386       .  A
C1229      H1408   1.079       .  S
H1231      C1404   1.075       .  S
H1232      C1405   1.081       .  S
N1233      C1237   1.383       .  A
N1233      C1234   1.359       .  A
N1233      N1240   1.453       .  S
C1234      C1235   1.382       .  A
C1234      C1317   1.474       .  S
C1235      C1236   1.353       .  A
C1235      H1238   1.083       .  S
C1236      C1237   1.380       .  A
C1236      H1239   1.081       .  S
C1237      C1391   1.518       .  S
N1240      C1244   1.379       .  A
N1240      C1241   1.363       .  A
C1241      C1242   1.389       .  A
C1241      C1269   1.476       .  S
C1242      C1243   1.345       .  A
C1242      H1245   1.080       .  S
C1243      C1244   1.370       .  A
C1243      H1246   1.083       .  S
C1244      C1357   1.474       .  S
Zn1247     O1251   1.931       .  S
Zn1247     O1252   2.064       .  S
Zn1247     O1256   1.937       .  S
Zn1247     O1263   1.970       .  S
Zn1248     O1251   1.851       .  S
Zn1248     O1253   1.929   1_565  S
Zn1248     O1255   1.943       .  S
Zn1249     O1251   1.985       .  S
Zn1249     O1254   2.062       .  S
Zn1249     O1257   2.088   1_565  S
Zn1250     O1258   2.074       .  S
Zn1250     O1261   2.081       .  S
O1252      C1264   1.269       .  A
O1254      C1266   1.276       .  A
O1255      C1264   1.271       .  A
O1256      C1266   1.270       .  A
O1258      C1267   1.279       .  A
O1259      C1268   1.268       .  A
O1260      C1267   1.259       .  A
O1261      C1268   1.289       .  A
O1262      C1269   1.295       .  A
O1263      C1269   1.267       .  A
C1264      C1325   1.482       .  S
C1265      C1278   1.506       .  S
C1266      C1399   1.485       .  S
C1267      C1285   1.469       .  S
C1268      C1359   1.475       .  S
N1270      C1274   1.373       .  A
N1270      C1271   1.367       .  A
N1270      N1277   1.455       .  S
C1271      C1272   1.376       .  A
C1271      C1319   1.466       .  S
C1272      C1273   1.358       .  A
C1272      H1275   1.081       .  S
C1273      C1274   1.387       .  A
C1273      H1276   1.076       .  S
C1274      C1393   1.525       .  S
N1277      C1281   1.378       .  A
N1277      C1278   1.371       .  A
C1279      C1280   1.363       .  A
C1279      H1282   1.078       .  S
C1280      H1283   1.082       .  S
C1281      C1353   1.494       .  S
N1284      C1288   1.366       .  A
N1284      C1285   1.355       .  A
N1284      N1291   1.435       .  S
C1285      C1286   1.390       .  A
C1286      C1287   1.365       .  A
C1286      H1289   1.084       .  S
C1287      C1288   1.371       .  A
C1287      H1290   1.083       .  S
C1288      C1390   1.460       .  S
N1291      C1295   1.371       .  A
N1291      C1292   1.358       .  A
C1292      C1293   1.390       .  A
C1292      C1315   1.468       .  S
C1293      C1294   1.353       .  A
C1294      C1295   1.369       .  A
C1295      C1355   1.463       .  S
Zn1298     O1303   1.982       .  S
Zn1298     O1314   1.908       .  S
Zn1299     O1306   2.055       .  S
Zn1299     O1310   2.004       .  S
Zn1300     O1302   1.920       .  S
Zn1300     O1305   2.092       .  S
Zn1300     O1308   1.998       .  S
Zn1300     O1311   1.962       .  S
Zn1301     O1309   1.990       .  S
Zn1301     O1312   2.002       .  S
Zn1301     O1313   2.026       .  S
O1303      C1315   1.272       .  A
O1304      C1316   1.277       .  A
O1305      C1317   1.281       .  A
O1306      C1315   1.289       .  A
O1307      C1317   1.265       .  A
O1308      C1316   1.285       .  A
O1310      C1319   1.265       .  A
O1311      C1318   1.262       .  A
O1312      C1319   1.271       .  A
O1313      C1320   1.273       .  A
O1314      C1320   1.252       .  A
C1316      C1362   1.518       .  S
C1318      C1329   1.443       .  S
C1320      C1396   1.456       .  S
N1321      C1325   1.352       .  A
N1321      C1322   1.350       .  A
N1321      N1328   1.423       .  S
C1322      C1323   1.372       .  A
C1322      C1394   1.469       .  S
C1323      C1324   1.356       .  A
C1323      H1326   1.082       .  S
C1324      C1325   1.386       .  A
C1324      H1327   1.078       .  S
N1328      C1332   1.376       .  A
N1328      C1329   1.342       .  A
C1329      C1330   1.387       .  A
C1330      C1331   1.366       .  A
C1331      C1332   1.377       .  A
C1332      C1352   1.498       .  S
Zn1335     O1339   2.005       .  S
Zn1335     O1351   1.916       .  S
Zn1336     O1343   2.090       .  S
Zn1337     O1342   1.991       .  S
Zn1338     O1346   2.090       .  S
Zn1338     O1349   2.055       .  S
O1340      C1352   1.284       .  A
O1342      C1354   1.271       .  A
O1343      C1352   1.286       .  A
O1344      C1354   1.272       .  A
O1347      C1356   1.263       .  A
O1348      C1355   1.261       .  A
O1350      C1357   1.292       .  A
O1351      C1357   1.254       .  A
C1354      C1403   1.495       .  S
C1356      C1366   1.506       .  S
N1358      C1362   1.373       .  A
N1358      C1359   1.373       .  A
N1358      N1365   1.451       .  S
C1359      C1360   1.372       .  A
C1360      C1361   1.356       .  A
C1360      H1363   1.083       .  S
C1361      C1362   1.391       .  A
C1361      H1364   1.080       .  S
N1365      C1369   1.377       .  A
N1365      C1366   1.372       .  A
C1366      C1367   1.388       .  A
C1367      C1368   1.358       .  A
C1368      C1369   1.376       .  A
C1369      C1392   1.488       .  S
Zn1372     O1376   1.892       .  S
Zn1372     O1377   1.964       .  S
Zn1372     O1381   1.975       .  S
Zn1373     O1376   1.923       .  S
Zn1373     O1378   1.886       .  S
Zn1373     O1380   2.086       .  S
Zn1374     O1376   1.873       .  S
Zn1374     O1379   2.158       .  S
Zn1374     O1382   2.127       .  S
Zn1374     O1385   2.136       .  S
Zn1375     O1383   2.009       .  S
Zn1375     O1386   2.114       .  S
Zn1375     O1387   2.122       .  S
O1377      C1389   1.267       .  A
O1378      C1390   1.255       .  A
O1379      C1391   1.298       .  A
O1380      C1389   1.265       .  A
O1381      C1391   1.260       .  A
O1382      C1390   1.295       .  A
O1383      C1392   1.264       .  A
O1384      C1393   1.287       .  A
O1386      C1393   1.284       .  A
O1387      C1394   1.291       .  A
O1388      C1394   1.260       .  A
C1389      C1406   1.492       .  S
N1395      C1399   1.364       .  A
N1395      C1396   1.352       .  A
N1395      N1402   1.439       .  S
C1396      C1397   1.379       .  A
C1397      C1398   1.359       .  A
C1397      H1400   1.083       .  S
C1398      C1399   1.388       .  A
C1398      H1401   1.083       .  S
N1402      C1406   1.365       .  A
N1402      C1403   1.362       .  A
C1403      C1404   1.380       .  A
C1404      C1405   1.362       .  A
C1405      C1406   1.382       .  A
