geometry optimzed in LAMMPS
_audit_creation_date              2020-12-01 
_audit_creation_method            'lammps2cif' 
_symmetry_space_group_name_H-M    'P1' 
_symmetry_Int_Tables_number       1 
_symmetry_cell_setting            triclinic 
loop_ 
_symmetry_equiv_pos_as_xyz 
  x,y,z 
_cell_length_a                    36.81386295 
_cell_length_b                    37.11894348679701 
_cell_length_c                    37.169845116405256 
_cell_angle_alpha                 89.9967973726163 
_cell_angle_beta                  89.82403227532751 
_cell_angle_gamma                 90.2314088162533 
loop_ 
_atom_site_label 
_atom_site_type_symbol 
_atom_site_fract_x 
_atom_site_fract_y 
_atom_site_fract_z 
_atom_site_charge 
C1          C  0.41748960  0.42110634  0.07822162     0.41300
N2          N  0.45510934  0.46301246  0.06356801     0.00200
C3          C  0.45761569  0.06523587  0.40703794    -0.07700
H4          H  0.47382287  0.43188565  0.38404049     0.05700
C5          C  0.09303194  0.43685894  0.45802267    -0.08100
Co6        Co  0.43339603  0.00141484  0.49609830     0.74200
N7          N  0.46358828  0.46204903  0.43260998    -0.27200
Co8        Co  0.00422684  0.50148297  0.43440013     0.74100
C9          C  0.08171499  0.42041701  0.42404303     0.41400
N10         N  0.06317483  0.46302990  0.04423859    -0.00200
N11         N  0.04468326  0.46273844  0.43775436    -0.00100
N12         N  0.41186286  0.06517013  0.44782253    -0.48100
H13         H  0.38309504  0.43070526  0.02743620     0.05600
N14         N  0.43674398  0.46146153  0.45626085     0.00200
N15         N  0.04456179  0.04109481  0.43720603    -0.00100
C16         C  0.08129589  0.08398807  0.42326738     0.41500
N17         N  0.03608237  0.46328723  0.06758359    -0.26700
C18         C  0.40726264  0.06746125  0.04199723    -0.07600
N19         N  0.44727761  0.43934674  0.08913720    -0.47800
N20         N  0.05183808  0.06538316  0.41210396    -0.48000
C21         C  0.41826404  0.08385985  0.07609727     0.41300
N22         N  0.43668542  0.04060092  0.45566121     0.00200
N23         N  0.03620251  0.04163593  0.06765162    -0.26700
N24         N  0.43153543  0.46235500  0.03688104    -0.27200
N25         N  0.06318495  0.04228809  0.04419173    -0.00200
H26         H  0.02494093  0.07238012  0.11558499     0.05700
H27         H  0.11596600  0.07426278  0.47384325     0.05700
N28         N  0.46361190  0.04010839  0.43214115    -0.27300
N29         N  0.06857737  0.46298568  0.46416116    -0.26900
N30         N  0.45529104  0.04133202  0.06268770     0.00200
C31         C  0.42332825  0.41937334  0.41867530     0.41600
C32         C  0.04122889  0.43695651  0.09158113    -0.08100
N33         N  0.06819731  0.04177327  0.46385212    -0.26900
H34         H  0.11684563  0.43157592  0.47410515     0.05700
N35         N  0.41191319  0.43653699  0.44874310    -0.48100
H36         H  0.02408759  0.43146297  0.11463845     0.05700
C37         C  0.07565715  0.08496731  0.08136582     0.41400
C38         C  0.40686945  0.43636910  0.04352951    -0.07600
Co39       Co  0.49565314  0.00231478  0.06594496     0.73800
N40         N  0.08735245  0.43757605  0.05124266    -0.47800
C41         C  0.42346544  0.08205487  0.41764828     0.41700
N42         N  0.44790715  0.06588283  0.08743538    -0.47800
Co43       Co  0.06663265  0.50253626  0.00423455     0.73900
C44         C  0.09236222  0.06831666  0.45762114    -0.08100
C45         C  0.45740340  0.43659486  0.40773793    -0.07700
N46         N  0.43161459  0.04119929  0.03607660    -0.27200
N47         N  0.05190857  0.43821533  0.41298424    -0.48000
H48         H  0.47424174  0.06993822  0.38345452     0.05700
C49         C  0.04176751  0.06746763  0.09220637    -0.08100
Cl50       Cl  0.99998027  0.00190061  0.00019086    -0.51100
C51         C  0.07507378  0.41973520  0.08059701     0.41400
H52         H  0.38356668  0.07278667  0.02573968     0.05600
N53         N  0.08762503  0.06762302  0.05160491    -0.47800
C54         C  0.17391437  0.17261849  0.33009077    -0.03700
C55         C  0.17321114  0.33273996  0.32992794    -0.03700
C56         C  0.17160333  0.33386944  0.17104714    -0.03700
C57         C  0.17184484  0.17378026  0.17091125    -0.03700
C58         C  0.32665795  0.16929891  0.32856873    -0.03700
C59         C  0.32512679  0.17121476  0.16951895    -0.03700
C60         C  0.32476039  0.33144670  0.17083308    -0.03700
C61         C  0.32613602  0.32995830  0.33014527    -0.03700
C62         C  0.29537396  0.34774127  0.23218067    -0.14500
C63         C  0.32688291  0.34151957  0.21166487     0.07600
C64         C  0.35925952  0.33528565  0.23108066    -0.14500
C65         C  0.35947489  0.33430099  0.26888614    -0.14500
C66         C  0.32747238  0.34011430  0.28921171     0.07600
C67         C  0.29561491  0.34685982  0.26950664    -0.14500
H68         H  0.26903401  0.34776723  0.22015049     0.11600
H69         H  0.38395605  0.32839463  0.21679537     0.11600
H70         H  0.38434425  0.32676591  0.28236797     0.11600
H71         H  0.26947088  0.34606878  0.28194972     0.11600
C72         C  0.30708764  0.23231299  0.19275552    -0.14500
C73         C  0.33128299  0.21279801  0.17083911     0.07600
C74         C  0.35795051  0.23260666  0.15165108    -0.14500
C75         C  0.35795220  0.27078831  0.15220161    -0.14500
C76         C  0.33091571  0.28986816  0.17143824     0.07600
C77         C  0.30652427  0.26939590  0.19259050    -0.14500
H78         H  0.28654412  0.21847130  0.20856859     0.11600
H79         H  0.37835870  0.21896496  0.13581625     0.11600
H80         H  0.37854647  0.28495234  0.13695611     0.11600
H81         H  0.28519600  0.28214723  0.20798251     0.11600
C82         C  0.30292099  0.14106552  0.26766215    -0.14500
C83         C  0.32990613  0.15910665  0.28755137     0.07600
C84         C  0.35998811  0.17211838  0.26748252    -0.14500
C85         C  0.35968911  0.17244574  0.22976912    -0.14500
C86         C  0.32917494  0.16001021  0.21015352     0.07600
C87         C  0.30253784  0.14154700  0.23021958    -0.14500
H88         H  0.28095578  0.12661064  0.27974828     0.11600
H89         H  0.38270618  0.18467548  0.28115124     0.11600
H90         H  0.38220258  0.18522482  0.21583873     0.11600
H91         H  0.28034456  0.12745796  0.21824605     0.11600
C92         C  0.35896615  0.23056162  0.34790510    -0.14500
C93         C  0.33251058  0.21100655  0.32828755     0.07600
C94         C  0.30788143  0.23094558  0.30740947    -0.14500
C95         C  0.30715584  0.26804293  0.30843902    -0.14500
C96         C  0.33184731  0.28824672  0.32939455     0.07600
C97         C  0.35876965  0.26879624  0.34826197    -0.14500
H98         H  0.37937685  0.21666793  0.36338679     0.11600
H99         H  0.28724253  0.21737926  0.29161756     0.11600
H100        H  0.28566198  0.28102755  0.29361051     0.11600
H101        H  0.37918978  0.28273179  0.36383246     0.11600
C102        C  0.22965503  0.19379427  0.13580986    -0.14500
C103        C  0.20997483  0.16635886  0.15355374     0.07600
C104        C  0.22811585  0.13294990  0.15685638    -0.14500
C105        C  0.26656849  0.13213405  0.15574804    -0.14500
C106        C  0.28608704  0.16491291  0.15329569     0.07600
C107        C  0.26738716  0.19302334  0.13559127    -0.14500
H108        H  0.21653778  0.21773014  0.12564321     0.11600
H109        H  0.21339286  0.10919878  0.16562511     0.11600
H110        H  0.28049349  0.10736002  0.16225986     0.11600
H111        H  0.28143005  0.21640239  0.12501937     0.11600
C112        C  0.18991612  0.27260566  0.19336339    -0.14500
C113        C  0.16561251  0.29230431  0.17191114     0.07600
C114        C  0.13895820  0.27270791  0.15263905    -0.14500
C115        C  0.13892608  0.23455028  0.15282590    -0.14500
C116        C  0.16582928  0.21530815  0.17188449     0.07600
C117        C  0.19035393  0.23554798  0.19295885    -0.14500
H118        H  0.21054331  0.28628944  0.20908209     0.11600
H119        H  0.11861981  0.28649478  0.13697004     0.11600
H120        H  0.11846455  0.22052658  0.13740344     0.11600
H121        H  0.21167381  0.22262262  0.20809605     0.11600
C122        C  0.22912232  0.31265877  0.13611545    -0.14500
C123        C  0.21043965  0.34053347  0.15430487     0.07600
C124        C  0.22992665  0.37326805  0.15703133    -0.14500
C125        C  0.26834682  0.37234780  0.15823141    -0.14500
C126        C  0.28645703  0.33896695  0.15431063     0.07600
C127        C  0.26683036  0.31180770  0.13625873    -0.14500
H128        H  0.21506588  0.28942830  0.12531007     0.11600
H129        H  0.21598058  0.39798528  0.16388995     0.11600
H130        H  0.28307276  0.39595439  0.16726638     0.11600
H131        H  0.27996587  0.28801584  0.12569752     0.11600
C132        C  0.19555799  0.36231984  0.26915854    -0.14500
C133        C  0.16899072  0.34379823  0.28929353     0.07600
C134        C  0.13846925  0.33123767  0.26978950    -0.14500
C135        C  0.13802457  0.33158210  0.23207651    -0.14500
C136        C  0.16803031  0.34462638  0.21190273     0.07600
C137        C  0.19500369  0.36283179  0.23166781    -0.14500
H138        H  0.21776662  0.37621043  0.28092100     0.11600
H139        H  0.11608414  0.31838094  0.28378340     0.11600
H140        H  0.11535998  0.31888270  0.21851700     0.11600
H141        H  0.21683609  0.37723025  0.21962203     0.11600
C142        C  0.23163578  0.37203705  0.34362877    -0.14500
C143        C  0.21214869  0.33927090  0.34622050     0.07600
C144        C  0.23052638  0.31148664  0.36478972    -0.14500
C145        C  0.26823072  0.31075594  0.36532130    -0.14500
C146        C  0.28812241  0.33786329  0.34738949     0.07600
C147        C  0.27008051  0.37124747  0.34326476    -0.14500
H148        H  0.21779050  0.39674236  0.33660286     0.11600
H149        H  0.21631004  0.28827080  0.37551837     0.11600
H150        H  0.28121474  0.28695889  0.37600088     0.11600
H151        H  0.28494402  0.39483369  0.33430077     0.11600
C152        C  0.20274424  0.15597426  0.26861263    -0.14500
C153        C  0.17142775  0.16254946  0.28928956     0.07600
C154        C  0.13899712  0.16898344  0.27004151    -0.14500
C155        C  0.13856529  0.16962669  0.23223306    -0.14500
C156        C  0.17043429  0.16337097  0.21176449     0.07600
C157        C  0.20224410  0.15629649  0.23132819    -0.14500
H158        H  0.22918356  0.15607547  0.28046049     0.11600
H159        H  0.11446550  0.17625549  0.28441878     0.11600
H160        H  0.11371061  0.17741677  0.21884939     0.11600
H161        H  0.22839227  0.15654895  0.21869239     0.11600
C162        C  0.22990001  0.13096307  0.34187661    -0.14500
C163        C  0.21212539  0.16445535  0.34639900     0.07600
C164        C  0.23204054  0.19115158  0.36475526    -0.14500
C165        C  0.26972444  0.18993412  0.36469160    -0.14500
C166        C  0.28801570  0.16238334  0.34562877     0.07600
C167        C  0.26832793  0.12978949  0.34248532    -0.14500
H168        H  0.21491233  0.10761486  0.33261204     0.11600
H169        H  0.21913040  0.21492328  0.37566990     0.11600
H170        H  0.28405103  0.21283194  0.37586971     0.11600
H171        H  0.28201654  0.10515248  0.33500148     0.11600
C172        C  0.19280985  0.23448208  0.30835738    -0.14500
C173        C  0.16822294  0.21420883  0.32946639     0.07600
C174        C  0.14087211  0.23338017  0.34814281    -0.14500
C175        C  0.14061258  0.27151547  0.34812509    -0.14500
C176        C  0.16728703  0.29118398  0.32884216     0.07600
C177        C  0.19183131  0.27155970  0.30742176    -0.14500
H178        H  0.21431635  0.22156743  0.29334708     0.11600
H179        H  0.12012659  0.21932320  0.36328740     0.11600
H180        H  0.11997408  0.28525896  0.36357608     0.11600
H181        H  0.21235171  0.28535276  0.29153885     0.11600
C182        C  0.10372131  0.10163740  0.36263522    -0.14500
C183        C  0.10286466  0.10801291  0.39974386     0.07600
C184        C  0.12375903  0.13624004  0.41391018    -0.14500
C185        C  0.14502701  0.15787873  0.39113111    -0.14500
C186        C  0.14651490  0.15145798  0.35364443     0.07600
C187        C  0.12573389  0.12241309  0.34004700    -0.14500
H188        H  0.08847013  0.07943283  0.35117212     0.11600
H189        H  0.12368040  0.14151218  0.44256691     0.11600
H190        H  0.16121158  0.17920191  0.40294330     0.11600
H191        H  0.12708319  0.11437308  0.31218220     0.11600
C192        C  0.12168661  0.37105756  0.08773781    -0.16500
C193        C  0.09757629  0.39589324  0.10305270     0.07600
C194        C  0.09619581  0.39938137  0.14048669    -0.14500
C195        C  0.11933958  0.37954487  0.16234868    -0.14500
C196        C  0.14384359  0.35425443  0.14759946     0.07600
C197        C  0.14409855  0.35003933  0.10977343    -0.14500
H198        H  0.12320365  0.36796243  0.05880576     0.11600
H199        H  0.07823676  0.41877276  0.15299387     0.11600
H200        H  0.11804221  0.38515625  0.19080105     0.11600
H201        H  0.16243214  0.33109787  0.09717783     0.11600
C202        C  0.39719525  0.10278883  0.13672904    -0.14500
C203        C  0.39655033  0.10784053  0.09943454     0.07600
C204        C  0.37420748  0.13472740  0.08508138    -0.14500
C205        C  0.35274265  0.15612563  0.10783450    -0.14500
C206        C  0.35237223  0.15058263  0.14546727     0.07600
C207        C  0.37512548  0.12327426  0.15930971    -0.14500
H208        H  0.41382875  0.08187421  0.14847295     0.11600
H209        H  0.37330969  0.13914326  0.05629512     0.11600
H210        H  0.33557621  0.17648108  0.09592124     0.11600
H211        H  0.37567781  0.11652632  0.18754178     0.11600
C212        C  0.09878200  0.10420763  0.14116908    -0.14500
C213        C  0.09819255  0.10911002  0.10385636     0.07600
C214        C  0.12029871  0.13590051  0.08855681    -0.14500
C215        C  0.14237874  0.15765215  0.11043741    -0.14500
C216        C  0.14386237  0.15244394  0.14811758     0.07600
C217        C  0.12188874  0.12469682  0.16279205    -0.14500
H218        H  0.08258275  0.08316424  0.15359044     0.11600
H219        H  0.12045292  0.14002428  0.05970932     0.11600
H220        H  0.15924250  0.17800563  0.09777254     0.11600
H221        H  0.12293008  0.11734200  0.19081676     0.11600
C222        C  0.37860867  0.36832239  0.41193510    -0.14500
C223        C  0.40026218  0.39537824  0.39640550     0.07600
C224        C  0.39872400  0.40057564  0.35916099    -0.14500
C225        C  0.37544712  0.37986235  0.33784993    -0.14500
C226        C  0.35422533  0.35158825  0.35269287     0.07600
C227        C  0.35632398  0.34640303  0.39034505    -0.14500
H228        H  0.37903342  0.36405056  0.44075740     0.11600
H229        H  0.41439123  0.42191999  0.34659034     0.11600
H230        H  0.37366500  0.38743486  0.30991628     0.11600
H231        H  0.33984405  0.32587399  0.40321781     0.11600
C232        C  0.40120787  0.10193170  0.35777140    -0.14500
C233        C  0.40065955  0.10566714  0.39522500     0.07600
C234        C  0.37726521  0.13094151  0.41084669    -0.14500
C235        C  0.35492432  0.15237932  0.38920710    -0.14500
C236        C  0.35452860  0.14831476  0.35140423     0.07600
C237        C  0.37810626  0.12232396  0.33624534    -0.14500
H238        H  0.41854837  0.08212592  0.34507806     0.11600
H239        H  0.37634656  0.13416360  0.43980461     0.11600
H240        H  0.33715693  0.17164787  0.40213531     0.11600
H241        H  0.37867466  0.11664765  0.30779101     0.11600
C242        C  0.12568223  0.36969236  0.41477240    -0.14500
C243        C  0.10290375  0.39624260  0.40057186     0.07600
C244        C  0.10104812  0.40060615  0.36322478    -0.14500
C245        C  0.12262663  0.37994011  0.34038696    -0.14500
C246        C  0.14602054  0.35315121  0.35410967     0.07600
C247        C  0.14651361  0.34801214  0.39180389    -0.14500
H248        H  0.12739761  0.36574606  0.44358757     0.11600
H249        H  0.08388545  0.42115769  0.35159783     0.11600
H250        H  0.12123675  0.38617663  0.31207093     0.11600
H251        H  0.16401932  0.32788957  0.40360579     0.11600
C252        C  0.37229815  0.38253114  0.16126861    -0.14500
C253        C  0.35204745  0.35314132  0.14750444     0.07600
C254        C  0.35392955  0.34684977  0.11003086    -0.14500
C255        C  0.37520147  0.36871559  0.08745777    -0.14500
C256        C  0.39569997  0.39716434  0.10174830     0.07600
C257        C  0.39430843  0.40361691  0.13885134    -0.14500
H258        H  0.37058018  0.39051497  0.18912800     0.11600
H259        H  0.33808228  0.32536381  0.09804761     0.11600
H260        H  0.37565028  0.36338406  0.05880946     0.11600
H261        H  0.40919513  0.42600125  0.15041319     0.11600
C262        C  0.41741206  0.42118212  0.57815378     0.41300
N263        N  0.45503739  0.46308502  0.56350206     0.00200
C264        C  0.45761981  0.06516382  0.90709316    -0.07700
H265        H  0.47385551  0.43178226  0.88413830     0.05700
C266        C  0.09305661  0.43678398  0.95805403    -0.08100
Co267      Co  0.43343993  0.00134160  0.99616697     0.74200
N268        N  0.46362211  0.46197347  0.93268807    -0.27200
Co269      Co  0.00425187  0.50141530  0.93444041     0.74100
C270        C  0.08171228  0.42031424  0.92409524     0.41400
N271        N  0.06310758  0.46305543  0.54423200    -0.00200
N272        N  0.04471092  0.46267070  0.93778908    -0.00100
N273        N  0.41187403  0.06509175  0.94788515    -0.48100
H274        H  0.38302508  0.43078162  0.52736072     0.05600
N275        N  0.43678586  0.46138897  0.95634655     0.00200
N276        N  0.04459384  0.04103307  0.93720425    -0.00100
C277        C  0.08135411  0.08389500  0.92322537     0.41500
N278        N  0.03600827  0.46332673  0.56756927    -0.26700
C279        C  0.40723909  0.06756155  0.54193095    -0.07600
N280        N  0.44720111  0.43941936  0.58906782    -0.47800
N281        N  0.05188490  0.06529474  0.91207798    -0.48000
C282        C  0.41826064  0.08396950  0.57602423     0.41300
N283        N  0.43670392  0.04052632  0.95572066     0.00200
N284        N  0.03617091  0.04167856  0.56764359    -0.26700
N285        N  0.43146814  0.46242840  0.53681056    -0.27200
N286        N  0.06315567  0.04231556  0.54418681    -0.00200
H287        H  0.02495049  0.07241089  0.61559754     0.05700
H288        H  0.11602491  0.07418830  0.97380302     0.05700
N289        N  0.46362598  0.04003701  0.93219441    -0.27300
N290        N  0.06861874  0.46293033  0.96418308    -0.26900
N291        N  0.45525483  0.04140867  0.56262069     0.00200
C292        C  0.42337131  0.41927858  0.91879195     0.41600
C293        C  0.04114355  0.43700592  0.59158350    -0.08100
N294        N  0.06823273  0.04172281  0.96384708    -0.26900
H295        H  0.11687106  0.43149545  0.97413354     0.05700
N296        N  0.41195926  0.43645513  0.94885150    -0.48100
H297        H  0.02399194  0.43152819  0.61463599     0.05700
C298        C  0.07567628  0.08496797  0.58137657     0.41400
C299        C  0.40679673  0.43644463  0.54345749    -0.07600
Co300      Co  0.49559622  0.00237385  0.56590351     0.73800
N301        N  0.08727912  0.43760034  0.55125803    -0.47800
C302        C  0.42346582  0.08197755  0.91770571     0.41700
N303        N  0.44789510  0.06597680  0.58735672    -0.47800
Co304      Co  0.06658737  0.50257232  0.50422541     0.73900
C305        C  0.09241179  0.06824770  0.95759222    -0.08100
C306        C  0.45744022  0.43650082  0.90783714    -0.07700
N307        N  0.43157367  0.04127915  0.53601297    -0.27200
N308        N  0.05190975  0.43812066  0.91303772    -0.48000
H309        H  0.47424356  0.06986924  0.88350845     0.05700
C310        C  0.04176720  0.06749406  0.59221290    -0.08100
Cl311      Cl  0.99993699  0.00195564  0.50015224    -0.51100
C312        C  0.07499360  0.41977437  0.58062169     0.41400
H313        H  0.38354816  0.07290302  0.52567205     0.05600
N314        N  0.08762133  0.06762308  0.55160883    -0.47800
C315        C  0.17395663  0.17256544  0.83005081    -0.03700
C316        C  0.17320409  0.33267766  0.82993199    -0.03700
C317        C  0.17158184  0.33390419  0.67105159    -0.03700
C318        C  0.17191302  0.17379894  0.67088408    -0.03700
C319        C  0.32674971  0.16932315  0.82858947    -0.03700
C320        C  0.32521551  0.17132210  0.66954690    -0.03700
C321        C  0.32476355  0.33154994  0.67087349    -0.03700
C322        C  0.32616233  0.32997065  0.83018363    -0.03700
C323        C  0.29540477  0.34785369  0.73223151    -0.14500
C324        C  0.32690569  0.34163169  0.71170431     0.07600
C325        C  0.35928606  0.33538706  0.73111284    -0.14500
C326        C  0.35950480  0.33436824  0.76891909    -0.14500
C327        C  0.32750469  0.34016775  0.78925521     0.07600
C328        C  0.29565045  0.34694302  0.76955500    -0.14500
H329        H  0.26905761  0.34790006  0.72020794     0.11600
H330        H  0.38398003  0.32849978  0.71681964     0.11600
H331        H  0.38437441  0.32681325  0.78239084     0.11600
H332        H  0.26950133  0.34614880  0.78199534     0.11600
C333        C  0.30716093  0.23240592  0.69282007    -0.14500
C334        C  0.33135738  0.21290612  0.67088975     0.07600
C335        C  0.35800606  0.23272990  0.65169349    -0.14500
C336        C  0.35798353  0.27091071  0.65224241    -0.14500
C337        C  0.33093855  0.28997474  0.67148293     0.07600
C338        C  0.30656941  0.26949027  0.69264857    -0.14500
H339        H  0.28663269  0.21855086  0.70864076     0.11600
H340        H  0.37841354  0.21909891  0.63584750     0.11600
H341        H  0.37856304  0.28508736  0.63698855     0.11600
H342        H  0.28524002  0.28223234  0.70804735     0.11600
C343        C  0.30304544  0.14108107  0.76767471    -0.14500
C344        C  0.33002454  0.15912543  0.78757224     0.07600
C345        C  0.36009869  0.17216323  0.76750798    -0.14500
C346        C  0.35979003  0.17252427  0.72979457    -0.14500
C347        C  0.32927818  0.16008760  0.71017310     0.07600
C348        C  0.30265757  0.14159652  0.73023236    -0.14500
H349        H  0.28109659  0.12660925  0.77975919     0.11600
H350        H  0.38281081  0.18472493  0.78118190     0.11600
H351        H  0.38229455  0.18532876  0.71587049     0.11600
H352        H  0.28045606  0.12750467  0.71824485     0.11600
C353        C  0.35901327  0.23058812  0.84798996    -0.14500
C354        C  0.33261180  0.21102875  0.82830754     0.07600
C355        C  0.30802885  0.23096305  0.80736914    -0.14500
C356        C  0.30729029  0.26805813  0.80839429    -0.14500
C357        C  0.33192063  0.28826693  0.82941155     0.07600
C358        C  0.35880497  0.26882371  0.84834400    -0.14500
H359        H  0.37937738  0.21669646  0.86353404     0.11600
H360        H  0.28742432  0.21739452  0.79153477     0.11600
H361        H  0.28582339  0.28103505  0.79351992     0.11600
H362        H  0.37917468  0.28276345  0.86397442     0.11600
C363        C  0.22972947  0.19387206  0.63582563    -0.14500
C364        C  0.21005372  0.16641014  0.65353309     0.07600
C365        C  0.22821652  0.13301102  0.65681996    -0.14500
C366        C  0.26667189  0.13222380  0.65574841    -0.14500
C367        C  0.28617139  0.16501791  0.65333272     0.07600
C368        C  0.26746215  0.19313034  0.63564069    -0.14500
H369        H  0.21660433  0.21780551  0.62566377     0.11600
H370        H  0.21350375  0.10924186  0.66555753     0.11600
H371        H  0.28060818  0.10745471  0.66224664     0.11600
H372        H  0.28149437  0.21652506  0.62509143     0.11600
C373        C  0.18992019  0.27263731  0.69336519    -0.14500
C374        C  0.16562264  0.29233104  0.67189885     0.07600
C375        C  0.13900356  0.27272343  0.65259104    -0.14500
C376        C  0.13898557  0.23456409  0.65277537    -0.14500
C377        C  0.16587071  0.21532734  0.67186533     0.07600
C378        C  0.19036779  0.23557678  0.69296410    -0.14500
H379        H  0.21052905  0.28632695  0.70910116     0.11600
H380        H  0.11868418  0.28650518  0.63689181     0.11600
H381        H  0.11855035  0.22053493  0.63732355     0.11600
H382        H  0.21167503  0.22265601  0.70812339     0.11600
C383        C  0.22912830  0.31273298  0.63613909    -0.14500
C384        C  0.21042410  0.34059607  0.65432442     0.07600
C385        C  0.22990042  0.37333680  0.65706968    -0.14500
C386        C  0.26832236  0.37242782  0.65828612    -0.14500
C387        C  0.28644683  0.33905281  0.65437041     0.07600
C388        C  0.26683577  0.31188887  0.63631086    -0.14500
H389        H  0.21508614  0.28950255  0.62531584     0.11600
H390        H  0.21594448  0.39804594  0.66392742     0.11600
H391        H  0.28303691  0.39603932  0.66732517     0.11600
H392        H  0.27998365  0.28810250  0.62575141     0.11600
C393        C  0.19553544  0.36230784  0.76917954    -0.14500
C394        C  0.16898059  0.34376512  0.78930631     0.07600
C395        C  0.13845929  0.33120792  0.76979874    -0.14500
C396        C  0.13801513  0.33156177  0.73208765    -0.14500
C397        C  0.16800350  0.34464801  0.71191393     0.07600
C398        C  0.19497039  0.36285289  0.73169279    -0.14500
H399        H  0.21775269  0.37620091  0.78096514     0.11600
H400        H  0.11607761  0.31833433  0.78378867     0.11600
H401        H  0.11535852  0.31884467  0.71852558     0.11600
H402        H  0.21680280  0.37727595  0.71964751     0.11600
C403        C  0.23162113  0.37197172  0.84367590    -0.14500
C404        C  0.21214486  0.33919411  0.84622417     0.07600
C405        C  0.23053394  0.31138906  0.86475049    -0.14500
C406        C  0.26823884  0.31067221  0.86528582    -0.14500
C407        C  0.28812725  0.33782177  0.84741308     0.07600
C408        C  0.27006786  0.37120268  0.84333661    -0.14500
H409        H  0.21776891  0.39667726  0.83667555     0.11600
H410        H  0.21632697  0.28815411  0.87544748     0.11600
H411        H  0.28122822  0.28686464  0.87593440     0.11600
H412        H  0.28492317  0.39481217  0.83442004     0.11600
C413        C  0.20279455  0.15589345  0.76858076    -0.14500
C414        C  0.17147578  0.16248414  0.78925337     0.07600
C415        C  0.13904848  0.16892929  0.77000540    -0.14500
C416        C  0.13862824  0.16961495  0.73219890    -0.14500
C417        C  0.17050351  0.16337533  0.71173304     0.07600
C418        C  0.20230001  0.15626208  0.73129809    -0.14500
H419        H  0.22922530  0.15594771  0.78043133     0.11600
H420        H  0.11451485  0.17619254  0.78438330     0.11600
H421        H  0.11377677  0.17741919  0.71881550     0.11600
H422        H  0.22846360  0.15650617  0.71866765     0.11600
C423        C  0.22998028  0.13096939  0.84188370    -0.14500
C424        C  0.21218006  0.16445349  0.84636293     0.07600
C425        C  0.23207919  0.19118885  0.86468058    -0.14500
C426        C  0.26976426  0.18999787  0.86462061    -0.14500
C427        C  0.28808272  0.16242737  0.84560895     0.07600
C428        C  0.26840962  0.12982195  0.84249399    -0.14500
H429        H  0.21500802  0.10759826  0.83265138     0.11600
H430        H  0.21915414  0.21496336  0.87557012     0.11600
H431        H  0.28406991  0.21291645  0.87578075     0.11600
H432        H  0.28211418  0.10518231  0.83504278     0.11600
C433        C  0.19279024  0.23443582  0.80828445    -0.14500
C434        C  0.16822530  0.21415058  0.82940900     0.07600
C435        C  0.14086912  0.23330759  0.84809105    -0.14500
C436        C  0.14060052  0.27144244  0.84808606    -0.14500
C437        C  0.16727421  0.29112314  0.82881455     0.07600
C438        C  0.19180853  0.27151335  0.80736918    -0.14500
H439        H  0.21429351  0.22153103  0.79326044     0.11600
H440        H  0.12013078  0.21923987  0.86323655     0.11600
H441        H  0.11995941  0.28517521  0.86354309     0.11600
H442        H  0.21232368  0.28531585  0.79148781     0.11600
C443        C  0.10382258  0.10151759  0.86259326    -0.14500
C444        C  0.10292810  0.10791606  0.89969737     0.07600
C445        C  0.12378888  0.13617025  0.91386111    -0.14500
C446        C  0.14505622  0.15781530  0.89108570    -0.14500
C447        C  0.14657197  0.15138117  0.85360338     0.07600
C448        C  0.12582899  0.12230670  0.84000772    -0.14500
H449        H  0.08860143  0.07929132  0.85113322     0.11600
H450        H  0.12368270  0.14146055  0.94251471     0.11600
H451        H  0.16121380  0.17915907  0.90289736     0.11600
H452        H  0.12720144  0.11425981  0.81214551     0.11600
C453        C  0.12171936  0.37119051  0.58774012    -0.16500
C454        C  0.09747546  0.39589095  0.60307014     0.07600
C455        C  0.09596236  0.39921950  0.64051584    -0.14500
C456        C  0.11913514  0.37940170  0.66237207    -0.14500
C457        C  0.14379341  0.35426748  0.64760284     0.07600
C458        C  0.14414491  0.35017087  0.60976404    -0.14500
H459        H  0.12333748  0.36820770  0.55880099     0.11600
H460        H  0.07788668  0.41848827  0.65304646     0.11600
H461        H  0.11773044  0.38490649  0.69083813     0.11600
H462        H  0.16257623  0.33133581  0.59714790     0.11600
C463        C  0.39731451  0.10296545  0.63667589    -0.14500
C464        C  0.39657974  0.10797051  0.59937619     0.07600
C465        C  0.37419238  0.13483361  0.58504549    -0.14500
C466        C  0.35276313  0.15624111  0.60782586    -0.14500
C467        C  0.35245913  0.15071889  0.64546379     0.07600
C468        C  0.37527338  0.12345088  0.65928354    -0.14500
H469        H  0.41399398  0.08208034  0.64840855     0.11600
H470        H  0.37323035  0.13922205  0.55625763     0.11600
H471        H  0.33556068  0.17657626  0.59592921     0.11600
H472        H  0.37589504  0.11673040  0.68751978     0.11600
C473        C  0.09886520  0.10418699  0.64116565    -0.14500
C474        C  0.09824007  0.10909998  0.60385634     0.07600
C475        C  0.12034188  0.13589043  0.58854561    -0.14500
C476        C  0.14243859  0.15764207  0.61041359    -0.14500
C477        C  0.14394073  0.15243841  0.64809287     0.07600
C478        C  0.12198689  0.12467649  0.66277452    -0.14500
H479        H  0.08267753  0.08313869  0.65359418     0.11600
H480        H  0.12047560  0.14001780  0.55969881     0.11600
H481        H  0.15929316  0.17799794  0.59774016     0.11600
H482        H  0.12304953  0.11731325  0.69079580     0.11600
C483        C  0.37855297  0.36831678  0.91203414    -0.14500
C484        C  0.40028500  0.39531639  0.89651472     0.07600
C485        C  0.39880433  0.40049992  0.85926721    -0.14500
C486        C  0.37551370  0.37982628  0.83793842    -0.14500
C487        C  0.35422477  0.35159576  0.85276602     0.07600
C488        C  0.35625975  0.34642598  0.89042512    -0.14500
H489        H  0.37892803  0.36406250  0.94085956     0.11600
H490        H  0.41453066  0.42180607  0.84670338     0.11600
H491        H  0.37378656  0.38739214  0.81000026     0.11600
H492        H  0.33973004  0.32592896  0.90328598     0.11600
C493        C  0.40130786  0.10197036  0.85782681    -0.14500
C494        C  0.40066798  0.10561424  0.89528865     0.07600
C495        C  0.37721369  0.13083682  0.91091060    -0.14500
C496        C  0.35490945  0.15231228  0.88926393    -0.14500
C497        C  0.35459784  0.14832601  0.85145014     0.07600
C498        C  0.37823886  0.12239089  0.83629247    -0.14500
H499        H  0.41869901  0.08221397  0.84512516     0.11600
H500        H  0.37622334  0.13399394  0.93987354     0.11600
H501        H  0.33709815  0.17154000  0.90219320     0.11600
H502        H  0.37888841  0.11678030  0.80782712     0.11600
C503        C  0.12563498  0.36954807  0.91479658    -0.14500
C504        C  0.10289542  0.39614226  0.90061390     0.07600
C505        C  0.10108019  0.40056173  0.86327168    -0.14500
C506        C  0.12265832  0.37990805  0.84042320    -0.14500
C507        C  0.14601561  0.35307790  0.85412649     0.07600
C508        C  0.14647430  0.34788619  0.89181425    -0.14500
H509        H  0.12731771  0.36555766  0.94360780     0.11600
H510        H  0.08395109  0.42114923  0.85165875     0.11600
H511        H  0.12130035  0.38618833  0.81211486     0.11600
H512        H  0.16395633  0.32773356  0.90360033     0.11600
C513        C  0.37232096  0.38260601  0.66125362    -0.14500
C514        C  0.35202675  0.35323794  0.64751171     0.07600
C515        C  0.35384806  0.34695382  0.61003230    -0.14500
C516        C  0.37508827  0.36881961  0.58742908    -0.14500
C517        C  0.39562663  0.39725139  0.60169692     0.07600
C518        C  0.39430488  0.40368591  0.63880627    -0.14500
H519        H  0.37066122  0.39057452  0.68912066     0.11600
H520        H  0.33797620  0.32547496  0.59806856     0.11600
H521        H  0.37548683  0.36349718  0.55877892     0.11600
H522        H  0.40923112  0.42605197  0.65035475     0.11600
C523        C  0.41748861  0.92110610  0.07822112     0.41300
N524        N  0.45510846  0.96301229  0.06356790     0.00200
C525        C  0.45761640  0.56523527  0.40703763    -0.07700
H526        H  0.47382145  0.93188674  0.38403984     0.05700
C527        C  0.09303293  0.93685946  0.45802351    -0.08100
Co528      Co  0.43339614  0.50141463  0.49609807     0.74200
N529        N  0.46358746  0.96204956  0.43260978    -0.27200
Co530      Co  0.00422721  0.00148262  0.43440098     0.74100
C531        C  0.08171617  0.92041763  0.42404375     0.41400
N532        N  0.06317447  0.96302986  0.04423808    -0.00200
N533        N  0.04468386  0.96273842  0.43775540    -0.00100
N534        N  0.41186340  0.56516971  0.44782204    -0.48100
H535        H  0.38309421  0.93070540  0.02743568     0.05600
N536        N  0.43674335  0.96146196  0.45626086     0.00200
N537        N  0.04456178  0.54109500  0.43720519    -0.00100
C538        C  0.08129611  0.58398830  0.42326699     0.41500
N539        N  0.03608188  0.96328710  0.06758292    -0.26700
C540        C  0.40726317  0.56746123  0.04199689    -0.07600
N541        N  0.44727666  0.93934636  0.08913688    -0.47800
N542        N  0.05183824  0.56538353  0.41210332    -0.48000
C543        C  0.41826455  0.58386015  0.07609674     0.41300
N544        N  0.43668593  0.54060054  0.45566092     0.00200
N545        N  0.03620257  0.54163587  0.06765175    -0.26700
N546        N  0.43153458  0.96235505  0.03688090    -0.27200
N547        N  0.06318497  0.54228802  0.04419182    -0.00200
H548        H  0.02494105  0.57238010  0.11558511     0.05700
H549        H  0.11596603  0.57426247  0.47384285     0.05700
N550        N  0.46361253  0.54010792  0.43214101    -0.27300
N551        N  0.06857798  0.96298584  0.46416219    -0.26900
N552        N  0.45529161  0.54133221  0.06268760     0.00200
C553        C  0.42332700  0.91937438  0.41867489     0.41600
C554        C  0.04122766  0.93695554  0.09157969    -0.08100
N555        N  0.06819726  0.54177320  0.46385132    -0.26900
H556        H  0.11684678  0.93157675  0.47410584     0.05700
N557        N  0.41191230  0.93653770  0.44874301    -0.48100
H558        H  0.02408599  0.93146152  0.11463662     0.05700
C559        C  0.07565719  0.58496732  0.08136585     0.41400
C560        C  0.40686855  0.93636914  0.04352914    -0.07600
Co561      Co  0.49565387  0.50231504  0.06594488     0.73800
N562        N  0.08735152  0.93757529  0.05124161    -0.47800
C563        C  0.42346612  0.58205433  0.41764780     0.41700
N564        N  0.44790769  0.56588326  0.08743504    -0.47800
Co565      Co  0.06663268  0.00253652  0.00423436     0.73900
C566        C  0.09236229  0.56831654  0.45762061    -0.08100
C567        C  0.45740221  0.93659573  0.40773750    -0.07700
N568        N  0.43161513  0.54119924  0.03607655    -0.27200
N569        N  0.05190951  0.93821561  0.41298511    -0.48000
H570        H  0.47424254  0.56993755  0.38345426     0.05700
C571        C  0.04176757  0.56746763  0.09220644    -0.08100
Cl572      Cl  0.99998024  0.50190018  0.00019119    -0.51100
C573        C  0.07507227  0.91973380  0.08059534     0.41400
H574        H  0.38356725  0.57278651  0.02573926     0.05600
N575        N  0.08762505  0.56762298  0.05160495    -0.47800
C576        C  0.17391505  0.67261932  0.33009108    -0.03700
C577        C  0.17321080  0.83274080  0.32992707    -0.03700
C578        C  0.17160168  0.83386926  0.17104679    -0.03700
C579        C  0.17184442  0.67378024  0.17091186    -0.03700
C580        C  0.32665902  0.66929893  0.32856830    -0.03700
C581        C  0.32512685  0.67121435  0.16951876    -0.03700
C582        C  0.32475936  0.83144609  0.17083240    -0.03700
C583        C  0.32613594  0.82995825  0.33014463    -0.03700
C584        C  0.29537366  0.84774176  0.23218008    -0.14500
C585        C  0.32688236  0.84151908  0.21166417     0.07600
C586        C  0.35925893  0.83528443  0.23107982    -0.14500
C587        C  0.35947454  0.83430006  0.26888528    -0.14500
C588        C  0.32747228  0.84011416  0.28921103     0.07600
C589        C  0.29561493  0.84686028  0.26950604    -0.14500
H590        H  0.26903389  0.84776849  0.22015015     0.11600
H591        H  0.38395516  0.82839265  0.21679444     0.11600
H592        H  0.38434381  0.82676445  0.28236700     0.11600
H593        H  0.26947070  0.84606973  0.28194920     0.11600
C594        C  0.30708871  0.73231243  0.19275633    -0.14500
C595        C  0.33128337  0.71279754  0.17083907     0.07600
C596        C  0.35794988  0.73260633  0.15164979    -0.14500
C597        C  0.35795107  0.77078800  0.15219991    -0.14500
C598        C  0.33091519  0.78986765  0.17143757     0.07600
C599        C  0.30652485  0.76939530  0.19259096    -0.14500
H600        H  0.28654586  0.71847071  0.20857018     0.11600
H601        H  0.37835746  0.71896476  0.13581407     0.11600
H602        H  0.37854433  0.78495218  0.13695319     0.11600
H603        H  0.28519701  0.78214652  0.20798368     0.11600
C604        C  0.30292158  0.64106548  0.26766193    -0.14500
C605        C  0.32990685  0.65910617  0.28755104     0.07600
C606        C  0.35998910  0.67211723  0.26748198    -0.14500
C607        C  0.35968986  0.67244452  0.22976859    -0.14500
C608        C  0.32917530  0.66000951  0.21015327     0.07600
C609        C  0.30253804  0.64154668  0.23021957    -0.14500
H610        H  0.28095539  0.62661058  0.27974879     0.11600
H611        H  0.38270756  0.68467402  0.28115060     0.11600
H612        H  0.38220348  0.68522326  0.21583797     0.11600
H613        H  0.28034443  0.62745797  0.21824591     0.11600
C614        C  0.35896693  0.73056186  0.34790482    -0.14500
C615        C  0.33251197  0.71100655  0.32828668     0.07600
C616        C  0.30788301  0.73094541  0.30740819    -0.14500
C617        C  0.30715680  0.76804273  0.30843804    -0.14500
C618        C  0.33184760  0.78824672  0.32939411     0.07600
C619        C  0.35876983  0.76879650  0.34826198    -0.14500
H620        H  0.37937743  0.71666838  0.36338691     0.11600
H621        H  0.28724445  0.71737897  0.29161593     0.11600
H622        H  0.28566303  0.78102717  0.29360921     0.11600
H623        H  0.37918933  0.78273229  0.36383308     0.11600
C624        C  0.22965473  0.69379500  0.13581107    -0.14500
C625        C  0.20997449  0.66635925  0.15355435     0.07600
C626        C  0.22811547  0.63295022  0.15685648    -0.14500
C627        C  0.26656811  0.63213424  0.15574804    -0.14500
C628        C  0.28608682  0.66491303  0.15329592     0.07600
C629        C  0.26738686  0.69302388  0.13559220    -0.14500
H630        H  0.21653752  0.71773109  0.12564491     0.11600
H631        H  0.21339245  0.60919899  0.16562487     0.11600
H632        H  0.28049302  0.60736012  0.16225956     0.11600
H633        H  0.28142973  0.71640302  0.12502050     0.11600
C634        C  0.18991419  0.77260586  0.19336441    -0.14500
C635        C  0.16561057  0.79230417  0.17191182     0.07600
C636        C  0.13895626  0.77270743  0.15264009    -0.14500
C637        C  0.13892459  0.73454981  0.15282702    -0.14500
C638        C  0.16582825  0.71530804  0.17188535     0.07600
C639        C  0.19035250  0.73554817  0.19295986    -0.14500
H640        H  0.21054127  0.78628988  0.20908301     0.11600
H641        H  0.11861762  0.78649402  0.13697113     0.11600
H642        H  0.11846311  0.72052585  0.13740474     0.11600
H643        H  0.21167257  0.72262310  0.20809706     0.11600
C644        C  0.22912065  0.81265732  0.13611582    -0.14500
C645        C  0.21043804  0.84053266  0.15430430     0.07600
C646        C  0.22992526  0.87326714  0.15703002    -0.14500
C647        C  0.26834543  0.87234676  0.15823026    -0.14500
C648        C  0.28645557  0.83896574  0.15431041     0.07600
C649        C  0.26682869  0.81180598  0.13625942    -0.14500
H650        H  0.21506410  0.78942665  0.12531097     0.11600
H651        H  0.21597927  0.89798468  0.16388809     0.11600
H652        H  0.28307148  0.89595355  0.16726451     0.11600
H653        H  0.27996404  0.78801377  0.12569882     0.11600
C654        C  0.19555734  0.86232036  0.26915754    -0.14500
C655        C  0.16899011  0.84379939  0.28929285     0.07600
C656        C  0.13846798  0.83123963  0.26978918    -0.14500
C657        C  0.13802293  0.83158387  0.23207618    -0.14500
C658        C  0.16802885  0.84462713  0.21190216     0.07600
C659        C  0.19500292  0.86283236  0.23166680    -0.14500
H660        H  0.21776684  0.87621080  0.28091998     0.11600
H661        H  0.11608269  0.81838347  0.28378339     0.11600
H662        H  0.11535799  0.81888490  0.21851693     0.11600
H663        H  0.21683491  0.87723003  0.21962091     0.11600
C664        C  0.23163581  0.87203731  0.34362780    -0.14500
C665        C  0.21214848  0.83927125  0.34621937     0.07600
C666        C  0.23052595  0.81148674  0.36478841    -0.14500
C667        C  0.26823026  0.81075566  0.36531989    -0.14500
C668        C  0.28812219  0.83786312  0.34738855     0.07600
C669        C  0.27008053  0.87124748  0.34326416    -0.14500
H670        H  0.21779078  0.89674267  0.33660193     0.11600
H671        H  0.21630944  0.78827100  0.37551699     0.11600
H672        H  0.28121405  0.78695840  0.37599926     0.11600
H673        H  0.28494424  0.89483372  0.33430053     0.11600
C674        C  0.20274459  0.65597478  0.26861291    -0.14500
C675        C  0.17142833  0.66255000  0.28929000     0.07600
C676        C  0.13899742  0.66898341  0.27004215    -0.14500
C677        C  0.13856523  0.66962615  0.23223373    -0.14500
C678        C  0.17043417  0.66337071  0.21176503     0.07600
C679        C  0.20224425  0.65629662  0.23132855    -0.14500
H680        H  0.22918438  0.65607627  0.28046079     0.11600
H681        H  0.11446579  0.67625537  0.28441956     0.11600
H682        H  0.11371035  0.67741584  0.21885017     0.11600
H683        H  0.22839229  0.65654920  0.21869254     0.11600
C684        C  0.22990074  0.63096410  0.34187708    -0.14500
C685        C  0.21212624  0.66445649  0.34639910     0.07600
C686        C  0.23204172  0.69115304  0.36475457    -0.14500
C687        C  0.26972565  0.68993527  0.36469089    -0.14500
C688        C  0.28801673  0.66238401  0.34562855     0.07600
C689        C  0.26832868  0.62979023  0.34248557    -0.14500
H690        H  0.21491291  0.60761578  0.33261297     0.11600
H691        H  0.21913180  0.71492506  0.37566877     0.11600
H692        H  0.28405240  0.71283313  0.37586860     0.11600
H693        H  0.28201701  0.60515318  0.33500199     0.11600
C694        C  0.19280961  0.73448293  0.30835678    -0.14500
C695        C  0.16822322  0.71420965  0.32946639     0.07600
C696        C  0.14087231  0.73338095  0.34814275    -0.14500
C697        C  0.14061231  0.77151626  0.34812450    -0.14500
C698        C  0.16728635  0.79118483  0.32884107     0.07600
C699        C  0.19183045  0.77156053  0.30742046    -0.14500
H700        H  0.21431615  0.72156836  0.29334647     0.11600
H701        H  0.12012711  0.71932395  0.36328773     0.11600
H702        H  0.11997387  0.78525973  0.36357558     0.11600
H703        H  0.21235053  0.78535359  0.29153715     0.11600
C704        C  0.10372275  0.60163730  0.36263522    -0.14500
C705        C  0.10286519  0.60801318  0.39974375     0.07600
C706        C  0.12375908  0.63624064  0.41391022    -0.14500
C707        C  0.14502729  0.65787941  0.39113135    -0.14500
C708        C  0.14651576  0.65145849  0.35364473     0.07600
C709        C  0.12573549  0.62241307  0.34004726    -0.14500
H710        H  0.08847211  0.57943239  0.35117204     0.11600
H711        H  0.12367986  0.64151299  0.44256691     0.11600
H712        H  0.16121148  0.67920284  0.40294362     0.11600
H713        H  0.12708545  0.61437268  0.31218261     0.11600
C714        C  0.12168392  0.87105499  0.08773686    -0.16500
C715        C  0.09757464  0.89589195  0.10305129     0.07600
C716        C  0.09619521  0.89938174  0.14048515    -0.14500
C717        C  0.11933900  0.87954561  0.16234742    -0.14500
C718        C  0.14384200  0.85425392  0.14759874     0.07600
C719        C  0.14409601  0.85003723  0.10977287    -0.14500
H720        H  0.12320013  0.86795856  0.05880490     0.11600
H721        H  0.07823705  0.91877419  0.15299192     0.11600
H722        H  0.11804251  0.88515833  0.19079959     0.11600
H723        H  0.16242890  0.83109483  0.09717770     0.11600
C724        C  0.39719505  0.60278838  0.13672837    -0.14500
C725        C  0.39655042  0.60784048  0.09943395     0.07600
C726        C  0.37420736  0.63472722  0.08508085    -0.14500
C727        C  0.35274225  0.65612516  0.10783403    -0.14500
C728        C  0.35237191  0.65058203  0.14546680     0.07600
C729        C  0.37512508  0.62327351  0.15930906    -0.14500
H730        H  0.41382855  0.58187372  0.14847220     0.11600
H731        H  0.37330967  0.63914328  0.05629459     0.11600
H732        H  0.33557572  0.67648057  0.09592087     0.11600
H733        H  0.37567731  0.61652524  0.18754107     0.11600
C734        C  0.09878223  0.60420715  0.14116923    -0.14500
C735        C  0.09819263  0.60910989  0.10385653     0.07600
C736        C  0.12029854  0.63590069  0.08855719    -0.14500
C737        C  0.14237846  0.65765229  0.11043794    -0.14500
C738        C  0.14386218  0.65244377  0.14811808     0.07600
C739        C  0.12188882  0.62469637  0.16279234    -0.14500
H740        H  0.08258315  0.58316355  0.15359043     0.11600
H741        H  0.12045263  0.64002477  0.05970973     0.11600
H742        H  0.15924201  0.67800604  0.09777324     0.11600
H743        H  0.12293022  0.61734142  0.19081703     0.11600
C744        C  0.37860627  0.86832432  0.41193496    -0.14500
C745        C  0.40026097  0.89537914  0.39640516     0.07600
C746        C  0.39872443  0.90057507  0.35916037    -0.14500
C747        C  0.37544797  0.87986146  0.33784919    -0.14500
C748        C  0.35422498  0.85158839  0.35269237     0.07600
C749        C  0.35632218  0.84640443  0.39034482    -0.14500
H750        H  0.37902976  0.86405358  0.44075743     0.11600
H751        H  0.41439269  0.92191852  0.34658946     0.11600
H752        H  0.37366725  0.88743290  0.30991517     0.11600
H753        H  0.33984147  0.82587609  0.40321771     0.11600
C754        C  0.40120741  0.60192997  0.35777099    -0.14500
C755        C  0.40066029  0.60566656  0.39522445     0.07600
C756        C  0.37726711  0.63094206  0.41084606    -0.14500
C757        C  0.35492622  0.65237989  0.38920648    -0.14500
C758        C  0.35452954  0.64831449  0.35140373     0.07600
C759        C  0.37810592  0.62232241  0.33624496    -0.14500
H760        H  0.41854689  0.58212320  0.34507778     0.11600
H761        H  0.37634937  0.63416497  0.43980392     0.11600
H762        H  0.33715963  0.67164926  0.40213463     0.11600
H763        H  0.37867332  0.61664524  0.30779081     0.11600
C764        C  0.12568258  0.86969247  0.41477221    -0.14500
C765        C  0.10290518  0.89624388  0.40057221     0.07600
C766        C  0.10105040  0.90060891  0.36322525    -0.14500
C767        C  0.12262831  0.87994274  0.34038704    -0.14500
C768        C  0.14602081  0.85315233  0.35410917     0.07600
C769        C  0.14651348  0.84801226  0.39180327    -0.14500
H770        H  0.12739734  0.86574514  0.44358728     0.11600
H771        H  0.08388872  0.92116153  0.35159876     0.11600
H772        H  0.12123913  0.88618028  0.31207119     0.11600
H773        H  0.16401838  0.82788873  0.40360472     0.11600
C774        C  0.37229868  0.88252928  0.16126808    -0.14500
C775        C  0.35204611  0.85314089  0.14750352     0.07600
C776        C  0.35392667  0.84685066  0.11002964    -0.14500
C777        C  0.37519856  0.86871661  0.08745663    -0.14500
C778        C  0.39569894  0.89716386  0.10174756     0.07600
C779        C  0.39430918  0.90361486  0.13885091    -0.14500
H780        H  0.37058223  0.89051218  0.18912780     0.11600
H781        H  0.33807820  0.82536570  0.09804615     0.11600
H782        H  0.37564596  0.86338630  0.05880807     0.11600
H783        H  0.40919745  0.92599796  0.15041320     0.11600
C784        C  0.41741271  0.92118198  0.57815401     0.41300
N785        N  0.45503794  0.96308500  0.56350211     0.00200
C786        C  0.45762006  0.56516504  0.90709408    -0.07700
H787        H  0.47385475  0.93178193  0.88413832     0.05700
C788        C  0.09305634  0.93678415  0.95805406    -0.08100
Co789      Co  0.43344053  0.50134157  0.99616709     0.74200
N790        N  0.46362153  0.96197313  0.93268811    -0.27200
Co791      Co  0.00425210  0.00141592  0.93444010     0.74100
C792        C  0.08171182  0.92031434  0.92409538     0.41400
N793        N  0.06310775  0.96305565  0.54423305    -0.00200
N794        N  0.04471098  0.96267128  0.93778886    -0.00100
N795        N  0.41187440  0.56509224  0.94788617    -0.48100
H796        H  0.38302536  0.93078166  0.52736123     0.05600
N797        N  0.43678513  0.96138892  0.95634645     0.00200
N798        N  0.04459341  0.54103251  0.93720446    -0.00100
C799        C  0.08135293  0.58389508  0.92322584     0.41500
N800        N  0.03600830  0.96332685  0.56757016    -0.26700
C801        C  0.40723859  0.56756138  0.54193080    -0.07600
N802        N  0.44720185  0.93941923  0.58906788    -0.47800
N803        N  0.05188399  0.56529449  0.91207838    -0.48000
C804        C  0.41825992  0.58396921  0.57602428     0.41300
N805        N  0.43670420  0.54052650  0.95572103     0.00200
N806        N  0.03617121  0.54167831  0.56764286    -0.26700
N807        N  0.43146847  0.96242845  0.53681078    -0.27200
N808        N  0.06315593  0.54231522  0.54418602    -0.00200
H809        H  0.02495129  0.57241023  0.61559716     0.05700
H810        H  0.11602397  0.57418862  0.97380338     0.05700
N811        N  0.46362621  0.54003759  0.93219472    -0.27300
N812        N  0.06861874  0.96293078  0.96418288    -0.26900
N813        N  0.45525437  0.54140861  0.56262058     0.00200
C814        C  0.42337026  0.91927877  0.91879171     0.41600
C815        C  0.04114323  0.93700571  0.59158410    -0.08100
N816        N  0.06823235  0.54172241  0.96384722    -0.26900
H817        H  0.11687059  0.93149535  0.97413372     0.05700
N818        N  0.41195826  0.93645539  0.94885123    -0.48100
H819        H  0.02399127  0.93152767  0.61463628     0.05700
C820        C  0.07567716  0.58496706  0.58137621     0.41400
C821        C  0.40679714  0.93644463  0.54345784    -0.07600
Co822      Co  0.49559566  0.50237375  0.56590376     0.73800
N823        N  0.08727905  0.93760028  0.55125892    -0.47800
C824        C  0.42346617  0.58197875  0.91770712     0.41700
N825        N  0.44789441  0.56597657  0.58735671    -0.47800
Co826      Co  0.06658755  0.00257252  0.50422637     0.73900
C827        C  0.09241098  0.56824768  0.95759251    -0.08100
C828        C  0.45743944  0.93650059  0.90783710    -0.07700
N829        N  0.43157333  0.54127910  0.53601274    -0.27200
N830        N  0.05190951  0.93812097  0.91303771    -0.48000
H831        H  0.47424383  0.56987106  0.88350950     0.05700
C832        C  0.04176785  0.56749350  0.59221239    -0.08100
Cl833      Cl  0.99993682  0.50195585  0.50015148    -0.51100
C834        C  0.07499323  0.91977405  0.58062231     0.41400
H835        H  0.38354766  0.57290280  0.52567189     0.05600
N836        N  0.08762193  0.56762236  0.55160825    -0.47800
C837        C  0.17395533  0.67256567  0.83005162    -0.03700
C838        C  0.17320328  0.83267771  0.82993223    -0.03700
C839        C  0.17158139  0.83390318  0.67105169    -0.03700
C840        C  0.17191294  0.67379804  0.67088479    -0.03700
C841        C  0.32674870  0.66932307  0.82859084    -0.03700
C842        C  0.32521571  0.67132160  0.66954826    -0.03700
C843        C  0.32476335  0.83154960  0.67087323    -0.03700
C844        C  0.32616161  0.82997054  0.83018335    -0.03700
C845        C  0.29540437  0.84785372  0.73223112    -0.14500
C846        C  0.32690534  0.84163145  0.71170402     0.07600
C847        C  0.35928556  0.83538647  0.73111266    -0.14500
C848        C  0.35950415  0.83436753  0.76891887    -0.14500
C849        C  0.32750406  0.84016743  0.78925490     0.07600
C850        C  0.29564993  0.84694302  0.76955462    -0.14500
H851        H  0.26905727  0.84790037  0.72020755     0.11600
H852        H  0.38397951  0.82849894  0.71681954     0.11600
H853        H  0.38437363  0.82681222  0.78239068     0.11600
H854        H  0.26950075  0.84614920  0.78199486     0.11600
C855        C  0.30716132  0.73240562  0.69282124    -0.14500
C856        C  0.33135776  0.71290564  0.67089108     0.07600
C857        C  0.35800627  0.73272935  0.65169446    -0.14500
C858        C  0.35798344  0.77091020  0.65224272    -0.14500
C859        C  0.33093835  0.78997435  0.67148295     0.07600
C860        C  0.30656934  0.76949000  0.69264889    -0.14500
H861        H  0.28663324  0.71855068  0.70864219     0.11600
H862        H  0.37841380  0.71909827  0.63584860     0.11600
H863        H  0.37856281  0.78508676  0.63698858     0.11600
H864        H  0.28523983  0.78223215  0.70804744     0.11600
C865        C  0.30304487  0.64108104  0.76767593    -0.14500
C866        C  0.33002369  0.65912507  0.78757370     0.07600
C867        C  0.36009831  0.67216240  0.76750958    -0.14500
C868        C  0.35979002  0.67252328  0.72979613    -0.14500
C869        C  0.32927823  0.66008692  0.71017451     0.07600
C870        C  0.30265716  0.64159609  0.73023371    -0.14500
H871        H  0.28109503  0.62660904  0.77976080     0.11600
H872        H  0.38281054  0.68472392  0.78118369     0.11600
H873        H  0.38229480  0.68532751  0.71587215     0.11600
H874        H  0.28045588  0.62750444  0.71824601     0.11600
C875        C  0.35901242  0.73058820  0.84799063    -0.14500
C876        C  0.33261086  0.71102867  0.82830849     0.07600
C877        C  0.30802797  0.73096278  0.80736983    -0.14500
C878        C  0.30728958  0.76805788  0.80839443    -0.14500
C879        C  0.33191990  0.78826684  0.82941155     0.07600
C880        C  0.35880416  0.76882379  0.84834426    -0.14500
H881        H  0.37937655  0.71669670  0.86353478     0.11600
H882        H  0.28742338  0.71739411  0.79153562     0.11600
H883        H  0.28582279  0.78103473  0.79351983     0.11600
H884        H  0.37917385  0.78276369  0.86397458     0.11600
C885        C  0.22972968  0.69387152  0.63582701    -0.14500
C886        C  0.21005393  0.66640947  0.65353431     0.07600
C887        C  0.22821682  0.63301038  0.65682106    -0.14500
C888        C  0.26667218  0.63222330  0.65574959    -0.14500
C889        C  0.28617158  0.66501748  0.65333415     0.07600
C890        C  0.26746234  0.69312995  0.63564223    -0.14500
H891        H  0.21660453  0.71780492  0.62566505     0.11600
H892        H  0.21350408  0.60924114  0.66555843     0.11600
H893        H  0.28060855  0.60745421  0.66224777     0.11600
H894        H  0.28149452  0.71652474  0.62509305     0.11600
C895        C  0.18991969  0.77263644  0.69336564    -0.14500
C896        C  0.16562238  0.79233003  0.67189890     0.07600
C897        C  0.13900370  0.77272231  0.65259067    -0.14500
C898        C  0.13898575  0.73456299  0.65277516    -0.14500
C899        C  0.16587049  0.71532638  0.67186582     0.07600
C900        C  0.19036718  0.73557591  0.69296491    -0.14500
H901        H  0.21052834  0.78632617  0.70910180     0.11600
H902        H  0.11868466  0.78650398  0.63689092     0.11600
H903        H  0.11855095  0.72053370  0.63732291     0.11600
H904        H  0.21167413  0.72265520  0.70812468     0.11600
C905        C  0.22912807  0.81273210  0.63613935    -0.14500
C906        C  0.21042375  0.84059516  0.65432463     0.07600
C907        C  0.22989994  0.87333600  0.65706967    -0.14500
C908        C  0.26832193  0.87242729  0.65828572    -0.14500
C909        C  0.28644661  0.83905237  0.65437005     0.07600
C910        C  0.26683556  0.81188824  0.63631078    -0.14500
H911        H  0.21508601  0.78950153  0.62531624     0.11600
H912        H  0.21594389  0.89804514  0.66392733     0.11600
H913        H  0.28303641  0.89603893  0.66732455     0.11600
H914        H  0.27998352  0.78810191  0.62575135     0.11600
C915        C  0.19553435  0.86230779  0.76917963    -0.14500
C916        C  0.16897961  0.84376496  0.78930649     0.07600
C917        C  0.13845863  0.83120707  0.76979890    -0.14500
C918        C  0.13801471  0.83156036  0.73208781    -0.14500
C919        C  0.16800286  0.84464700  0.71191403     0.07600
C920        C  0.19496947  0.86285244  0.73169280    -0.14500
H921        H  0.21775135  0.87620115  0.78096505     0.11600
H922        H  0.11607710  0.81833327  0.78378883     0.11600
H923        H  0.11535839  0.81884271  0.71852583     0.11600
H924        H  0.21680165  0.87727549  0.71964756     0.11600
C925        C  0.23162045  0.87197175  0.84367570    -0.14500
C926        C  0.21214417  0.83919417  0.84622409     0.07600
C927        C  0.23053329  0.81138914  0.86475041    -0.14500
C928        C  0.26823816  0.81067227  0.86528561    -0.14500
C929        C  0.28812651  0.83782173  0.84741267     0.07600
C930        C  0.27006716  0.87120267  0.84333620    -0.14500
H931        H  0.21776819  0.89667734  0.83667546     0.11600
H932        H  0.21632636  0.78815425  0.87544757     0.11600
H933        H  0.28122755  0.78686476  0.87593430     0.11600
H934        H  0.28492248  0.89481212  0.83441956     0.11600
C935        C  0.20279318  0.65589263  0.76858180    -0.14500
C936        C  0.17147457  0.66248417  0.78925419     0.07600
C937        C  0.13904747  0.66892969  0.77000591    -0.14500
C938        C  0.13862748  0.66961487  0.73219938    -0.14500
C939        C  0.17050282  0.66337456  0.71173381     0.07600
C940        C  0.20229903  0.65626082  0.73129918    -0.14500
H941        H  0.22922421  0.65594651  0.78043264     0.11600
H942        H  0.11451383  0.67619354  0.78438357     0.11600
H943        H  0.11377625  0.67741940  0.71881571     0.11600
H944        H  0.22846262  0.65650420  0.71866897     0.11600
C945        C  0.22997897  0.63096970  0.84188513    -0.14500
C946        C  0.21217880  0.66445387  0.84636386     0.07600
C947        C  0.23207801  0.69118941  0.86468122    -0.14500
C948        C  0.26976310  0.68999827  0.86462154    -0.14500
C949        C  0.28808161  0.66242754  0.84561026     0.07600
C950        C  0.26840835  0.62982213  0.84249538    -0.14500
H951        H  0.21500669  0.60759846  0.83265306     0.11600
H952        H  0.21915304  0.71496410  0.87557045     0.11600
H953        H  0.28406876  0.71291686  0.87578152     0.11600
H954        H  0.28211276  0.60518254  0.83504434     0.11600
C955        C  0.19278870  0.73443582  0.80828476    -0.14500
C956        C  0.16822399  0.71415076  0.82940972     0.07600
C957        C  0.14086827  0.73330791  0.84809230    -0.14500
C958        C  0.14059988  0.77144275  0.84808726    -0.14500
C959        C  0.16727329  0.79112324  0.82881515     0.07600
C960        C  0.19180720  0.77151331  0.80736948    -0.14500
H961        H  0.21429167  0.72153089  0.79326041     0.11600
H962        H  0.12013022  0.71924034  0.86323829     0.11600
H963        H  0.11995919  0.78517565  0.86354472     0.11600
H964        H  0.21232218  0.78531568  0.79148776     0.11600
C965        C  0.10382050  0.60151851  0.86259376    -0.14500
C966        C  0.10292655  0.60791648  0.89969795     0.07600
C967        C  0.12378771  0.63617030  0.91386186    -0.14500
C968        C  0.14505510  0.65781535  0.89108654    -0.14500
C969        C  0.14657055  0.65138154  0.85360415     0.07600
C970        C  0.12582699  0.62230758  0.84000830    -0.14500
H971        H  0.08859898  0.57929257  0.85113358     0.11600
H972        H  0.12368188  0.64146022  0.94251554     0.11600
H973        H  0.16121302  0.67915881  0.90289831     0.11600
H974        H  0.12719903  0.61426095  0.81214600     0.11600
C975        C  0.12171967  0.87119067  0.58774023    -0.16500
C976        C  0.09747466  0.89588990  0.60307047     0.07600
C977        C  0.09596018  0.89921676  0.64051627    -0.14500
C978        C  0.11913305  0.87939897  0.66237237    -0.14500
C979        C  0.14379274  0.85426624  0.64760292     0.07600
C980        C  0.14414520  0.85017081  0.60976398    -0.14500
H981        H  0.12333879  0.86820904  0.55880102     0.11600
H982        H  0.07788349  0.91848441  0.65304715     0.11600
H983        H  0.11772724  0.88490269  0.69083858     0.11600
H984        H  0.16257738  0.83133673  0.59714766     0.11600
C985        C  0.39731371  0.60296442  0.63667621    -0.14500
C986        C  0.39657895  0.60796995  0.59937653     0.07600
C987        C  0.37419188  0.63483348  0.58504624    -0.14500
C988        C  0.35276297  0.65624097  0.60782696    -0.14500
C989        C  0.35245907  0.65071837  0.64546486     0.07600
C990        C  0.37527297  0.62344993  0.65928422    -0.14500
H991        H  0.41399296  0.58207898  0.64840857     0.11600
H992        H  0.37322987  0.63922235  0.55625843     0.11600
H993        H  0.33556074  0.67657646  0.59593060     0.11600
H994        H  0.37589463  0.61672922  0.68752042     0.11600
C995        C  0.09886506  0.60418652  0.64116556    -0.14500
C996        C  0.09824108  0.60909883  0.60385614     0.07600
C997        C  0.12034381  0.63588860  0.58854552    -0.14500
C998        C  0.14244012  0.65764039  0.61041375    -0.14500
C999        C  0.14394108  0.65243740  0.64809318     0.07600
C1000       C  0.12198640  0.62467609  0.66277473    -0.14500
H1001       H  0.08267662  0.58313878  0.65359406     0.11600
H1002       H  0.12047845  0.64001544  0.55969865     0.11600
H1003       H  0.15929529  0.67799583  0.59774043     0.11600
H1004       H  0.12304799  0.61731345  0.69079621     0.11600
C1005       C  0.37855118  0.86831762  0.91203402    -0.14500
C1006       C  0.40028396  0.89531656  0.89651448     0.07600
C1007       C  0.39880422  0.90049926  0.85926683    -0.14500
C1008       C  0.37551369  0.87982556  0.83793798    -0.14500
C1009       C  0.35422399  0.85159570  0.85276575     0.07600
C1010       C  0.35625820  0.84642661  0.89042498    -0.14500
H1011       H  0.37892552  0.86406396  0.94085955     0.11600
H1012       H  0.41453121  0.92180485  0.84670284     0.11600
H1013       H  0.37378729  0.88739088  0.80999965     0.11600
H1014       H  0.33972800  0.82593002  0.90328595     0.11600
C1015       C  0.40130647  0.60197001  0.85782849    -0.14500
C1016       C  0.40066785  0.60561512  0.89529018     0.07600
C1017       C  0.37721413  0.63083832  0.91091206    -0.14500
C1018       C  0.35490931  0.65231324  0.88926535    -0.14500
C1019       C  0.35459680  0.64832599  0.85145167     0.07600
C1020       C  0.37823703  0.62239006  0.83629419    -0.14500
H1021       H  0.41869701  0.58221298  0.84512694     0.11600
H1022       H  0.37622468  0.63399632  0.93987492     0.11600
H1023       H  0.33709843  0.67154144  0.90219450     0.11600
H1024       H  0.37888565  0.61677845  0.80782903     0.11600
C1025       C  0.12563551  0.86954904  0.91479704    -0.14500
C1026       C  0.10289467  0.89614206  0.90061421     0.07600
C1027       C  0.10107802  0.90056024  0.86327191    -0.14500
C1028       C  0.12265622  0.87990667  0.84042343    -0.14500
C1029       C  0.14601492  0.85307786  0.85412686     0.07600
C1030       C  0.14647479  0.84788715  0.89181476    -0.14500
H1031       H  0.12731930  0.86555960  0.94360833     0.11600
H1032       H  0.08394780  0.92114673  0.85165884     0.11600
H1033       H  0.12129706  0.88618596  0.81211492     0.11600
H1034       H  0.16395773  0.82773537  0.90360094     0.11600
C1035       C  0.37232145  0.88260532  0.66125370    -0.14500
C1036       C  0.35202683  0.85323759  0.64751157     0.07600
C1037       C  0.35384826  0.84695369  0.61003214    -0.14500
C1038       C  0.37508875  0.86881945  0.58742910    -0.14500
C1039       C  0.39562739  0.89725098  0.60169711     0.07600
C1040       C  0.39430572  0.90368513  0.63880654    -0.14500
H1041       H  0.37066180  0.89057366  0.68912078     0.11600
H1042       H  0.33797622  0.82547503  0.59806823     0.11600
H1043       H  0.37548723  0.86349726  0.55877889     0.11600
H1044       H  0.40923222  0.92605092  0.65035521     0.11600
C1045       C  0.91748909  0.42110611  0.07822165     0.41300
N1046       N  0.95510891  0.46301227  0.06356819     0.00200
C1047       C  0.95761593  0.06523551  0.40703845    -0.07700
H1048       H  0.97382113  0.43188667  0.38403972     0.05700
C1049       C  0.59303293  0.43685899  0.45802381    -0.08100
Co1050     Co  0.93339595  0.00141440  0.49609862     0.74200
N1051       N  0.96358720  0.46204964  0.43260958    -0.27200
Co1052     Co  0.50422767  0.50148257  0.43440069     0.74100
C1053       C  0.58171613  0.42041705  0.42404413     0.41400
N1054       N  0.56317517  0.46303007  0.04423827    -0.00200
N1055       N  0.54468415  0.46273824  0.43775540    -0.00100
N1056       N  0.91186294  0.06516968  0.44782285    -0.48100
H1057       H  0.88309459  0.43070523  0.02743624     0.05600
N1058       N  0.93674306  0.46146214  0.45626064     0.00200
N1059       N  0.54456174  0.04109504  0.43720528    -0.00100
C1060       C  0.58129589  0.08398834  0.42326686     0.41500
N1061       N  0.53608263  0.46328726  0.06758317    -0.26700
C1062       C  0.90726264  0.06746133  0.04199673    -0.07600
N1063       N  0.94727714  0.43934645  0.08913730    -0.47800
N1064       N  0.55183803  0.06538352  0.41210333    -0.48000
C1065       C  0.91826398  0.08386016  0.07609665     0.41300
N1066       N  0.93668543  0.04060041  0.45566153     0.00200
N1067       N  0.53620225  0.04163569  0.06765176    -0.26700
N1068       N  0.93153498  0.46235491  0.03688122    -0.27200
N1069       N  0.56318470  0.04228776  0.04419189    -0.00200
H1070       H  0.52494053  0.07238019  0.11558491     0.05700
H1071       H  0.61596605  0.07426272  0.47384261     0.05700
N1072       N  0.96361201  0.04010792  0.43214159    -0.27300
N1073       N  0.56857818  0.46298560  0.46416226    -0.26900
N1074       N  0.95529116  0.04133236  0.06268736     0.00200
C1075       C  0.92332668  0.41937446  0.41867481     0.41600
C1076       C  0.54122877  0.43695599  0.09158018    -0.08100
N1077       N  0.56819730  0.04177336  0.46385133    -0.26900
H1078       H  0.61684665  0.43157611  0.47410630     0.05700
N1079       N  0.91191199  0.43653788  0.44874287    -0.48100
H1080       H  0.52408727  0.43146208  0.11463727     0.05700
C1081       C  0.57565675  0.08496728  0.08136570     0.41400
C1082       C  0.90686898  0.43636901  0.04352961    -0.07600
Co1083     Co  0.99565334  0.00231508  0.06594467     0.73800
N1084       N  0.58735251  0.43757583  0.05124196    -0.47800
C1085       C  0.92346567  0.08205454  0.41764872     0.41700
N1086       N  0.94790717  0.06588330  0.08743488    -0.47800
Co1087     Co  0.56663305  0.50253662  0.00423445     0.73900
C1088       C  0.59236224  0.06831672  0.45762048    -0.08100
C1089       C  0.95740190  0.43659577  0.40773735    -0.07700
N1090       N  0.93161469  0.04119941  0.03607630    -0.27200
N1091       N  0.55190965  0.43821521  0.41298530    -0.48000
H1092       H  0.97424212  0.06993799  0.38345514     0.05700
C1093       C  0.54176716  0.06746757  0.09220632    -0.08100
Cl1094     Cl  0.49998003  0.00190015  0.00019110    -0.51100
C1095       C  0.57507351  0.41973450  0.08059589     0.41400
H1096       H  0.88356670  0.07278658  0.02573913     0.05600
N1097       N  0.58762472  0.06762280  0.05160493    -0.47800
C1098       C  0.67391458  0.17261890  0.33009067    -0.03700
C1099       C  0.67321069  0.33274024  0.32992750    -0.03700
C1100       C  0.67160224  0.33386915  0.17104725    -0.03700
C1101       C  0.67184412  0.17378011  0.17091156    -0.03700
C1102       C  0.82665852  0.16929857  0.32856866    -0.03700
C1103       C  0.82512650  0.17121417  0.16951910    -0.03700
C1104       C  0.82475978  0.33144596  0.17083283    -0.03700
C1105       C  0.82613575  0.32995788  0.33014493    -0.03700
C1106       C  0.79537370  0.34774144  0.23218038    -0.14500
C1107       C  0.82688255  0.34151900  0.21166458     0.07600
C1108       C  0.85925908  0.33528455  0.23108033    -0.14500
C1109       C  0.85947451  0.33430004  0.26888577    -0.14500
C1110       C  0.82747212  0.34011386  0.28921139     0.07600
C1111       C  0.79561481  0.34685994  0.26950635    -0.14500
H1112       H  0.76903399  0.34776798  0.22015037     0.11600
H1113       H  0.88395541  0.32839299  0.21679503     0.11600
H1114       H  0.88434378  0.32676457  0.28236757     0.11600
H1115       H  0.76947059  0.34606933  0.28194945     0.11600
C1116       C  0.80708845  0.23231232  0.19275662    -0.14500
C1117       C  0.83128313  0.21279734  0.17083947     0.07600
C1118       C  0.85794993  0.23260602  0.15165047    -0.14500
C1119       C  0.85795139  0.27078768  0.15220070    -0.14500
C1120       C  0.83091545  0.28986747  0.17143813     0.07600
C1121       C  0.80652483  0.26939521  0.19259131    -0.14500
H1122       H  0.78654543  0.21847067  0.20857031     0.11600
H1123       H  0.87835758  0.21896434  0.13581490     0.11600
H1124       H  0.87854491  0.28495175  0.13695422     0.11600
H1125       H  0.78519694  0.28214650  0.20798388     0.11600
C1126       C  0.80292126  0.14106506  0.26766226    -0.14500
C1127       C  0.82990645  0.15910574  0.28755142     0.07600
C1128       C  0.85998868  0.17211690  0.26748235    -0.14500
C1129       C  0.85968947  0.17244423  0.22976895    -0.14500
C1130       C  0.82917499  0.16000927  0.21015361     0.07600
C1131       C  0.80253757  0.14154628  0.23021979    -0.14500
H1132       H  0.78095504  0.12661002  0.27974896     0.11600
H1133       H  0.88270708  0.18467372  0.28115097     0.11600
H1134       H  0.88220303  0.18522300  0.21583839     0.11600
H1135       H  0.78034446  0.12745787  0.21824632     0.11600
C1136       C  0.85896654  0.23056145  0.34790509    -0.14500
C1137       C  0.83251149  0.21100619  0.32828702     0.07600
C1138       C  0.80788261  0.23094508  0.30740848    -0.14500
C1139       C  0.80715656  0.26804240  0.30843823    -0.14500
C1140       C  0.83184742  0.28824635  0.32939429     0.07600
C1141       C  0.85876961  0.26879608  0.34826215    -0.14500
H1142       H  0.87937701  0.21666792  0.36338720     0.11600
H1143       H  0.78724400  0.21737866  0.29161624     0.11600
H1144       H  0.78566282  0.28102688  0.29360939     0.11600
H1145       H  0.87918918  0.28273182  0.36383318     0.11600
C1146       C  0.72965449  0.19379481  0.13581088    -0.14500
C1147       C  0.70997416  0.16635904  0.15355403     0.07600
C1148       C  0.72811513  0.13295001  0.15685623    -0.14500
C1149       C  0.76656776  0.13213411  0.15574815    -0.14500
C1150       C  0.78608646  0.16491290  0.15329622     0.07600
C1151       C  0.76738662  0.19302376  0.13559241    -0.14500
H1152       H  0.71653732  0.21773088  0.12564465     0.11600
H1153       H  0.71339204  0.10919877  0.16562450     0.11600
H1154       H  0.78049268  0.10735991  0.16225974     0.11600
H1155       H  0.78142955  0.21640297  0.12502083     0.11600
C1156       C  0.68991441  0.27260554  0.19336454    -0.14500
C1157       C  0.66561094  0.29230408  0.17191200     0.07600
C1158       C  0.63895654  0.27270759  0.15264014    -0.14500
C1159       C  0.63892463  0.23454995  0.15282692    -0.14500
C1160       C  0.66582815  0.21530794  0.17188521     0.07600
C1161       C  0.69035249  0.23554785  0.19295982    -0.14500
H1162       H  0.71054152  0.28628938  0.20908324     0.11600
H1163       H  0.61861800  0.28649437  0.13697122     0.11600
H1164       H  0.61846308  0.22052618  0.13740456     0.11600
H1165       H  0.71167248  0.22262261  0.20809699     0.11600
C1166       C  0.72912123  0.31265724  0.13611628    -0.14500
C1167       C  0.71043865  0.34053252  0.15430492     0.07600
C1168       C  0.72992583  0.37326702  0.15703068    -0.14500
C1169       C  0.76834599  0.37234671  0.15823068    -0.14500
C1170       C  0.78645614  0.33896572  0.15431065     0.07600
C1171       C  0.76682926  0.31180602  0.13625961    -0.14500
H1172       H  0.71506467  0.28942658  0.12531141     0.11600
H1173       H  0.71597983  0.39798454  0.16388886     0.11600
H1174       H  0.78307205  0.39595348  0.16726498     0.11600
H1175       H  0.77996463  0.28801385  0.12569890     0.11600
C1176       C  0.69555741  0.36232010  0.26915819    -0.14500
C1177       C  0.66899010  0.34379899  0.28929332     0.07600
C1178       C  0.63846812  0.33123919  0.26978947    -0.14500
C1179       C  0.63802326  0.33158350  0.23207648    -0.14500
C1180       C  0.66802927  0.34462680  0.21190264     0.07600
C1181       C  0.69500320  0.36283208  0.23166741    -0.14500
H1182       H  0.71776668  0.37621059  0.28092066     0.11600
H1183       H  0.61608281  0.31838295  0.28378354     0.11600
H1184       H  0.61535840  0.31888456  0.21851710     0.11600
H1185       H  0.71683518  0.37722980  0.21962165     0.11600
C1186       C  0.73163559  0.37203673  0.34362848    -0.14500
C1187       C  0.71214834  0.33927064  0.34621987     0.07600
C1188       C  0.73052586  0.31148605  0.36478874    -0.14500
C1189       C  0.76823017  0.31075508  0.36532024    -0.14500
C1190       C  0.78812202  0.33786262  0.34738892     0.07600
C1191       C  0.77008031  0.37124695  0.34326465    -0.14500
H1192       H  0.71779050  0.39674213  0.33660277     0.11600
H1193       H  0.71630939  0.28827022  0.37551718     0.11600
H1194       H  0.78121402  0.28695782  0.37599953     0.11600
H1195       H  0.78494396  0.39483325  0.33430107     0.11600
C1196       C  0.70274407  0.15597418  0.26861258    -0.14500
C1197       C  0.67142785  0.16254957  0.28928962     0.07600
C1198       C  0.63899699  0.16898316  0.27004174    -0.14500
C1199       C  0.63856484  0.16962597  0.23223333    -0.14500
C1200       C  0.67043378  0.16337047  0.21176469     0.07600
C1201       C  0.70224386  0.15629616  0.23132820    -0.14500
H1202       H  0.72918388  0.15607543  0.28046047     0.11600
H1203       H  0.61446538  0.17625524  0.28441911     0.11600
H1204       H  0.61371004  0.17741575  0.21884975     0.11600
H1205       H  0.72839170  0.15654868  0.21869236     0.11600
C1206       C  0.72990025  0.13096369  0.34187691    -0.14500
C1207       C  0.71212574  0.16445610  0.34639876     0.07600
C1208       C  0.73204108  0.19115263  0.36475438    -0.14500
C1209       C  0.76972500  0.18993488  0.36469096    -0.14500
C1210       C  0.78801619  0.16238362  0.34562875     0.07600
C1211       C  0.76832818  0.12978982  0.34248571    -0.14500
H1212       H  0.71491247  0.10761536  0.33261273     0.11600
H1213       H  0.71913109  0.21492463  0.37566854     0.11600
H1214       H  0.78405167  0.21283273  0.37586874     0.11600
H1215       H  0.78201656  0.10515276  0.33500226     0.11600
C1216       C  0.69280918  0.23448249  0.30835651    -0.14500
C1217       C  0.66822276  0.21420918  0.32946603     0.07600
C1218       C  0.64087192  0.23338044  0.34814257    -0.14500
C1219       C  0.64061210  0.27151573  0.34812460    -0.14500
C1220       C  0.66728622  0.29118431  0.32884133     0.07600
C1221       C  0.69183025  0.27156009  0.30742057    -0.14500
H1222       H  0.71431564  0.22156791  0.29334605     0.11600
H1223       H  0.62012671  0.21932341  0.36328748     0.11600
H1224       H  0.61997371  0.28525917  0.36357581     0.11600
H1225       H  0.71235039  0.28535319  0.29153737     0.11600
C1226       C  0.60372187  0.10163744  0.36263494    -0.14500
C1227       C  0.60286481  0.10801315  0.39974351     0.07600
C1228       C  0.62375904  0.13624034  0.41390994    -0.14500
C1229       C  0.64502719  0.15787901  0.39113099    -0.14500
C1230       C  0.64651529  0.15145819  0.35364434     0.07600
C1231       C  0.62573460  0.12241307  0.34004688    -0.14500
H1232       H  0.58847089  0.07943275  0.35117180     0.11600
H1233       H  0.62368016  0.14151254  0.44256665     0.11600
H1234       H  0.66121163  0.17920227  0.40294321     0.11600
H1235       H  0.62708421  0.11437281  0.31218218     0.11600
C1236       C  0.62168508  0.37105563  0.08773736    -0.16500
C1237       C  0.59757599  0.39589275  0.10305182     0.07600
C1238       C  0.59619662  0.39938256  0.14048568    -0.14500
C1239       C  0.61934012  0.37954610  0.16234794    -0.14500
C1240       C  0.64384282  0.35425413  0.14759923     0.07600
C1241       C  0.64409690  0.35003758  0.10977336    -0.14500
H1242       H  0.62320127  0.36795922  0.05880540     0.11600
H1243       H  0.57823863  0.41877516  0.15299246     0.11600
H1244       H  0.61804366  0.38515876  0.19080012     0.11600
H1245       H  0.66242962  0.33109503  0.09717817     0.11600
C1246       C  0.89719466  0.10278832  0.13672839    -0.14500
C1247       C  0.89654984  0.10784040  0.09943396     0.07600
C1248       C  0.87420667  0.13472713  0.08508098    -0.14500
C1249       C  0.85274168  0.15612505  0.10783428    -0.14500
C1250       C  0.85237149  0.15058189  0.14546704     0.07600
C1251       C  0.87512477  0.12327341  0.15930920    -0.14500
H1252       H  0.91382827  0.08187369  0.14847215     0.11600
H1253       H  0.87330883  0.13914319  0.05629473     0.11600
H1254       H  0.83557509  0.17648047  0.09592120     0.11600
H1255       H  0.87567714  0.11652518  0.18754121     0.11600
C1256       C  0.59878206  0.10420691  0.14116898    -0.14500
C1257       C  0.59819217  0.10910990  0.10385632     0.07600
C1258       C  0.62029781  0.13590091  0.08855699    -0.14500
C1259       C  0.64237780  0.15765248  0.11043771    -0.14500
C1260       C  0.64386178  0.15244374  0.14811781     0.07600
C1261       C  0.62188868  0.12469613  0.16279204    -0.14500
H1262       H  0.58258322  0.08316313  0.15359014     0.11600
H1263       H  0.62045166  0.14002516  0.05970954     0.11600
H1264       H  0.65924119  0.17800635  0.09777303     0.11600
H1265       H  0.62293033  0.11734097  0.19081669     0.11600
C1266       C  0.87860654  0.36832388  0.41193502    -0.14500
C1267       C  0.90026063  0.39537916  0.39640520     0.07600
C1268       C  0.89872346  0.40057550  0.35916050    -0.14500
C1269       C  0.87544705  0.37986174  0.33784943    -0.14500
C1270       C  0.85422474  0.35158815  0.35269260     0.07600
C1271       C  0.85632245  0.34640389  0.39034497    -0.14500
H1272       H  0.87903050  0.36405285  0.44075744     0.11600
H1273       H  0.91439119  0.42191935  0.34658963     0.11600
H1274       H  0.87366579  0.38743349  0.30991553     0.11600
H1275       H  0.83984215  0.32587522  0.40321786     0.11600
C1276       C  0.90120752  0.10193051  0.35777183    -0.14500
C1277       C  0.90065981  0.10566674  0.39522533     0.07600
C1278       C  0.87726607  0.13094180  0.41084684    -0.14500
C1279       C  0.85492518  0.15237950  0.38920712    -0.14500
C1280       C  0.85452901  0.14831432  0.35140432     0.07600
C1281       C  0.87810599  0.12232275  0.33624566    -0.14500
H1282       H  0.91854748  0.08212414  0.34507866     0.11600
H1283       H  0.87634790  0.13416446  0.43980470     0.11600
H1284       H  0.83715821  0.17164856  0.40213517     0.11600
H1285       H  0.87867390  0.11664584  0.30779146     0.11600
C1286       C  0.62568262  0.36969189  0.41477271    -0.14500
C1287       C  0.60290502  0.39624313  0.40057267     0.07600
C1288       C  0.60104994  0.40060787  0.36322571    -0.14500
C1289       C  0.62262784  0.37994173  0.34038750    -0.14500
C1290       C  0.64602065  0.35315161  0.35410965     0.07600
C1291       C  0.64651349  0.34801166  0.39180377    -0.14500
H1292       H  0.62739758  0.36574475  0.44358779     0.11600
H1293       H  0.58388805  0.42116030  0.35159917     0.11600
H1294       H  0.62123843  0.38617910  0.31207163     0.11600
H1295       H  0.66401855  0.32788828  0.40360523     0.11600
C1296       C  0.87229862  0.38252960  0.16126856    -0.14500
C1297       C  0.85204669  0.35314073  0.14750407     0.07600
C1298       C  0.85392783  0.34685012  0.11003029    -0.14500
C1299       C  0.87519975  0.36871609  0.08745730    -0.14500
C1300       C  0.89569947  0.39716386  0.10174816     0.07600
C1301       C  0.89430907  0.40361530  0.13885141    -0.14500
H1302       H  0.87058162  0.39051278  0.18912816     0.11600
H1303       H  0.83807978  0.32536483  0.09804682     0.11600
H1304       H  0.87564764  0.36338543  0.05880883     0.11600
H1305       H  0.90919678  0.42599881  0.15041361     0.11600
C1306       C  0.91741244  0.42118164  0.57815328     0.41300
N1307       N  0.95503754  0.46308491  0.56350175     0.00200
C1308       C  0.95761998  0.06516508  0.90709381    -0.07700
H1309       H  0.97385489  0.43178214  0.88413838     0.05700
C1310       C  0.59305681  0.43678432  0.95805411    -0.08100
Co1311     Co  0.93344018  0.00134175  0.99616679     0.74200
N1312       N  0.96362164  0.46197313  0.93268828    -0.27200
Co1313     Co  0.50425224  0.50141578  0.93444028     0.74100
C1314       C  0.58171231  0.42031448  0.92409545     0.41400
N1315       N  0.56310753  0.46305545  0.54423300    -0.00200
N1316       N  0.54471125  0.46267120  0.93778903    -0.00100
N1317       N  0.91187421  0.06509230  0.94788578    -0.48100
H1318       H  0.88302513  0.43078159  0.52736053     0.05600
N1319       N  0.93678529  0.46138880  0.95634667     0.00200
N1320       N  0.54459360  0.04103236  0.93720453    -0.00100
C1321       C  0.58135332  0.08389490  0.92322614     0.41500
N1322       N  0.53600799  0.46332673  0.56757000    -0.26700
C1323       C  0.90723862  0.06756114  0.54193124    -0.07600
N1324       N  0.94720153  0.43941889  0.58906730    -0.47800
N1325       N  0.55188435  0.06529439  0.91207853    -0.48000
C1326       C  0.91826015  0.08396913  0.57602456     0.41300
N1327       N  0.93670402  0.04052663  0.95572075     0.00200
N1328       N  0.53617141  0.04167860  0.56764286    -0.26700
N1329       N  0.93146809  0.46242850  0.53681042    -0.27200
N1330       N  0.56315615  0.04231554  0.54418604    -0.00200
H1331       H  0.52495139  0.07241047  0.61559714     0.05700
H1332       H  0.61602409  0.07418826  0.97380381     0.05700
N1333       N  0.96362609  0.04003771  0.93219451    -0.27300
N1334       N  0.56861908  0.46293082  0.96418300    -0.26900
N1335       N  0.95525443  0.04140840  0.56262100     0.00200
C1336       C  0.92337043  0.41927880  0.91879176     0.41600
C1337       C  0.54114265  0.43700545  0.59158386    -0.08100
N1338       N  0.56823243  0.04172218  0.96384738    -0.26900
H1339       H  0.61687117  0.43149568  0.97413369     0.05700
N1340       N  0.91195843  0.43645528  0.94885138    -0.48100
H1341       H  0.52399057  0.43152739  0.61463591     0.05700
C1342       C  0.57567729  0.08496737  0.58137627     0.41400
C1343       C  0.90679683  0.43644456  0.54345725    -0.07600
Co1344     Co  0.99559582  0.00237368  0.56590406     0.73800
N1345       N  0.58727863  0.43759988  0.55125885    -0.47800
C1346       C  0.92346604  0.08197873  0.91770673     0.41700
N1347       N  0.94789465  0.06597652  0.58735701    -0.47800
Co1348     Co  0.56658771  0.50257231  0.50422636     0.73900
C1349       C  0.59241118  0.06824740  0.95759282    -0.08100
C1350       C  0.95743959  0.43650067  0.90783722    -0.07700
N1351       N  0.93157329  0.04127880  0.53601326    -0.27200
N1352       N  0.55190988  0.43812096  0.91303784    -0.48000
H1353       H  0.97424379  0.06987105  0.88350924     0.05700
C1354       C  0.54176798  0.06749380  0.59221239    -0.08100
Cl1355     Cl  0.49993708  0.00195589  0.50015163    -0.51100
C1356       C  0.57499259  0.41977360  0.58062211     0.41400
H1357       H  0.88354769  0.07290256  0.52567235     0.05600
N1358       N  0.58762212  0.06762270  0.55160831    -0.47800
C1359       C  0.67395571  0.17256581  0.83005198    -0.03700
C1360       C  0.67320354  0.33267786  0.82993201    -0.03700
C1361       C  0.67158107  0.33390316  0.67105158    -0.03700
C1362       C  0.67191303  0.17379801  0.67088514    -0.03700
C1363       C  0.82674920  0.16932354  0.82859052    -0.03700
C1364       C  0.82521575  0.17132163  0.66954798    -0.03700
C1365       C  0.82476307  0.33154956  0.67087264    -0.03700
C1366       C  0.82616203  0.32997087  0.83018287    -0.03700
C1367       C  0.79540453  0.34785403  0.73223067    -0.14500
C1368       C  0.82690538  0.34163139  0.71170346     0.07600
C1369       C  0.85928562  0.33538620  0.73111197    -0.14500
C1370       C  0.85950441  0.33436750  0.76891820    -0.14500
C1371       C  0.82750446  0.34016778  0.78925439     0.07600
C1372       C  0.79565036  0.34694355  0.76955419    -0.14500
H1373       H  0.76905755  0.34790085  0.72020730     0.11600
H1374       H  0.88397941  0.32849836  0.71681878     0.11600
H1375       H  0.88437388  0.32681198  0.78238991     0.11600
H1376       H  0.76950113  0.34614997  0.78199449     0.11600
C1377       C  0.80716126  0.23240565  0.69282078    -0.14500
C1378       C  0.83135764  0.21290568  0.67089055     0.07600
C1379       C  0.85800590  0.23272939  0.65169360    -0.14500
C1380       C  0.85798299  0.27091022  0.65224179    -0.14500
C1381       C  0.83093808  0.28997435  0.67148228     0.07600
C1382       C  0.80656924  0.26949001  0.69264841    -0.14500
H1383       H  0.78663330  0.21855070  0.70864189     0.11600
H1384       H  0.87841329  0.21909832  0.63584756     0.11600
H1385       H  0.87856217  0.28508680  0.63698739     0.11600
H1386       H  0.78523985  0.28223218  0.70804712     0.11600
C1387       C  0.80304530  0.14108118  0.76767583    -0.14500
C1388       C  0.83002420  0.15912550  0.78757341     0.07600
C1389       C  0.86009862  0.17216299  0.76750920    -0.14500
C1390       C  0.85979017  0.17252387  0.72979576    -0.14500
C1391       C  0.82927840  0.16008717  0.71017425     0.07600
C1392       C  0.80265759  0.14159623  0.73023356    -0.14500
H1393       H  0.78109597  0.12660928  0.77976065     0.11600
H1394       H  0.88281078  0.18472467  0.78118319     0.11600
H1395       H  0.88229477  0.18532825  0.71587171     0.11600
H1396       H  0.78045625  0.12750434  0.71824602     0.11600
C1397       C  0.85901279  0.23058863  0.84799057    -0.14500
C1398       C  0.83261144  0.21102909  0.82830815     0.07600
C1399       C  0.80802874  0.23096316  0.80736925    -0.14500
C1400       C  0.80729034  0.26805824  0.80839377    -0.14500
C1401       C  0.83192044  0.28826721  0.82941111     0.07600
C1402       C  0.85880449  0.26882422  0.84834417    -0.14500
H1403       H  0.87937670  0.21669715  0.86353501     0.11600
H1404       H  0.78742426  0.21739449  0.79153490     0.11600
H1405       H  0.78582368  0.28103506  0.79351896     0.11600
H1406       H  0.87917393  0.28276415  0.86397479     0.11600
C1407       C  0.72972964  0.19387132  0.63582709    -0.14500
C1408       C  0.71005400  0.16640937  0.65353464     0.07600
C1409       C  0.72821686  0.13301027  0.65682137    -0.14500
C1410       C  0.76667223  0.13222314  0.65574969    -0.14500
C1411       C  0.78617160  0.16501733  0.65333398     0.07600
C1412       C  0.76746228  0.19312967  0.63564197    -0.14500
H1413       H  0.71660444  0.21780469  0.62566512     0.11600
H1414       H  0.71350416  0.10924105  0.66555888     0.11600
H1415       H  0.78060862  0.10745409  0.66224786     0.11600
H1416       H  0.78149441  0.21652438  0.62509255     0.11600
C1417       C  0.68991962  0.27263652  0.69336573    -0.14500
C1418       C  0.66562218  0.29232999  0.67189902     0.07600
C1419       C  0.63900352  0.27272214  0.65259090    -0.14500
C1420       C  0.63898573  0.23456282  0.65277545    -0.14500
C1421       C  0.66587058  0.21532635  0.67186607     0.07600
C1422       C  0.69036726  0.23557598  0.69296507    -0.14500
H1423       H  0.71052827  0.28632636  0.70910181     0.11600
H1424       H  0.61868439  0.28650369  0.63689117     0.11600
H1425       H  0.61855094  0.22053343  0.63732325     0.11600
H1426       H  0.71167424  0.22265532  0.70812484     0.11600
C1427       C  0.72912762  0.31273203  0.63613907    -0.14500
C1428       C  0.71042335  0.34059515  0.65432434     0.07600
C1429       C  0.72989957  0.37333596  0.65706928    -0.14500
C1430       C  0.76832156  0.37242724  0.65828528    -0.14500
C1431       C  0.78644621  0.33905229  0.65436965     0.07600
C1432       C  0.76683510  0.31188815  0.63631048    -0.14500
H1433       H  0.71508551  0.28950145  0.62531605     0.11600
H1434       H  0.71594353  0.39804517  0.66392695     0.11600
H1435       H  0.78303608  0.39603887  0.66732402     0.11600
H1436       H  0.77998301  0.28810178  0.62575104     0.11600
C1437       C  0.69553445  0.36230782  0.76917936    -0.14500
C1438       C  0.66897975  0.34376512  0.78930632     0.07600
C1439       C  0.63845859  0.33120743  0.76979886    -0.14500
C1440       C  0.63801453  0.33156067  0.73208777    -0.14500
C1441       C  0.66800265  0.34464713  0.71191389     0.07600
C1442       C  0.69496950  0.36285253  0.73169249    -0.14500
H1443       H  0.71775159  0.37620115  0.78096469     0.11600
H1444       H  0.61607705  0.31833378  0.78378889     0.11600
H1445       H  0.61535815  0.31884311  0.71852589     0.11600
H1446       H  0.71680141  0.37727534  0.71964731     0.11600
C1447       C  0.73162074  0.37197185  0.84367538    -0.14500
C1448       C  0.71214448  0.33919424  0.84622373     0.07600
C1449       C  0.73053367  0.31138915  0.86474986    -0.14500
C1450       C  0.76823854  0.31067230  0.86528495    -0.14500
C1451       C  0.78812685  0.33782189  0.84741214     0.07600
C1452       C  0.77006746  0.37120282  0.84333587    -0.14500
H1453       H  0.71776845  0.39667743  0.83667521     0.11600
H1454       H  0.71632680  0.28815423  0.87544700     0.11600
H1455       H  0.78122795  0.28686477  0.87593355     0.11600
H1456       H  0.78492274  0.39481234  0.83441935     0.11600
C1457       C  0.70279339  0.15589243  0.76858213    -0.14500
C1458       C  0.67147485  0.16248421  0.78925457     0.07600
C1459       C  0.63904776  0.16892990  0.77000634    -0.14500
C1460       C  0.63862770  0.16961511  0.73219982    -0.14500
C1461       C  0.67050294  0.16337458  0.71173418     0.07600
C1462       C  0.70229915  0.15626065  0.73129949    -0.14500
H1463       H  0.72922437  0.15594608  0.78043282     0.11600
H1464       H  0.61451421  0.17619389  0.78438405     0.11600
H1465       H  0.61377651  0.17741984  0.71881622     0.11600
H1466       H  0.72846269  0.15650381  0.71866928     0.11600
C1467       C  0.72997953  0.13097004  0.84188550    -0.14500
C1468       C  0.71217927  0.16445420  0.84636412     0.07600
C1469       C  0.73207853  0.19118993  0.86468114    -0.14500
C1470       C  0.76976361  0.18999895  0.86462113    -0.14500
C1471       C  0.78808209  0.16242811  0.84560994     0.07600
C1472       C  0.76840891  0.12982266  0.84249542    -0.14500
H1473       H  0.71500725  0.10759870  0.83265372     0.11600
H1474       H  0.71915354  0.21496464  0.87557034     0.11600
H1475       H  0.78406925  0.21291766  0.87578090     0.11600
H1476       H  0.78211339  0.10518297  0.83504447     0.11600
C1477       C  0.69278878  0.23443590  0.80828471    -0.14500
C1478       C  0.66822427  0.21415089  0.82940995     0.07600
C1479       C  0.64086863  0.23330808  0.84809261    -0.14500
C1480       C  0.64060014  0.27144292  0.84808733    -0.14500
C1481       C  0.66727340  0.29112338  0.82881498     0.07600
C1482       C  0.69180717  0.27151339  0.80736921    -0.14500
H1483       H  0.71429170  0.22153095  0.79326030     0.11600
H1484       H  0.62013076  0.21924052  0.86323885     0.11600
H1485       H  0.61995951  0.28517585  0.86354485     0.11600
H1486       H  0.71232204  0.28531571  0.79148731     0.11600
C1487       C  0.60382092  0.10151858  0.86259415    -0.14500
C1488       C  0.60292707  0.10791635  0.89969836     0.07600
C1489       C  0.62378837  0.13617007  0.91386235    -0.14500
C1490       C  0.64505571  0.15781523  0.89108703    -0.14500
C1491       C  0.64657103  0.15138159  0.85360461     0.07600
C1492       C  0.62582738  0.12230771  0.84000872    -0.14500
H1493       H  0.58859930  0.07929274  0.85113388     0.11600
H1494       H  0.62368264  0.14145985  0.94251604     0.11600
H1495       H  0.66121370  0.17915863  0.90289884     0.11600
H1496       H  0.62719927  0.11426120  0.81214639     0.11600
C1497       C  0.62171888  0.37119009  0.58774012    -0.16500
C1498       C  0.59747392  0.39588940  0.60307033     0.07600
C1499       C  0.59595958  0.39921645  0.64051611    -0.14500
C1500       C  0.61913259  0.37939882  0.66237223    -0.14500
C1501       C  0.64379226  0.35426604  0.64760281     0.07600
C1502       C  0.64414453  0.35017038  0.60976390    -0.14500
H1503       H  0.62333789  0.36820832  0.55880093     0.11600
H1504       H  0.57788294  0.41848417  0.65304696     0.11600
H1505       H  0.61772694  0.38490273  0.69083841     0.11600
H1506       H  0.66257669  0.33133626  0.59714759     0.11600
C1507       C  0.89731469  0.10296525  0.63667639    -0.14500
C1508       C  0.89657932  0.10797008  0.59937665     0.07600
C1509       C  0.87419164  0.13483297  0.58504612    -0.14500
C1510       C  0.85276265  0.15624049  0.60782669    -0.14500
C1511       C  0.85245920  0.15071846  0.64546468     0.07600
C1512       C  0.87527381  0.12345072  0.65928427    -0.14500
H1513       H  0.91399447  0.08208034  0.64840893     0.11600
H1514       H  0.87322918  0.13922128  0.55625825     0.11600
H1515       H  0.83555995  0.17657550  0.59593017     0.11600
H1516       H  0.87589595  0.11673049  0.68752057     0.11600
C1517       C  0.59886447  0.10418725  0.64116579    -0.14500
C1518       C  0.59824113  0.10909912  0.60385628     0.07600
C1519       C  0.62034442  0.13588844  0.58854568    -0.14500
C1520       C  0.64244067  0.15764018  0.61041399    -0.14500
C1521       C  0.64394114  0.15243749  0.64809349     0.07600
C1522       C  0.62198584  0.12467669  0.66277505    -0.14500
H1523       H  0.58267554  0.08313990  0.65359430     0.11600
H1524       H  0.62047954  0.14001497  0.55969876     0.11600
H1525       H  0.65929622  0.17799532  0.59774067     0.11600
H1526       H  0.62304692  0.11731436  0.69079662     0.11600
C1527       C  0.87855063  0.36831830  0.91203394    -0.14500
C1528       C  0.90028418  0.39531663  0.89651443     0.07600
C1529       C  0.89880535  0.40049875  0.85926664    -0.14500
C1530       C  0.87551487  0.37982516  0.83793765    -0.14500
C1531       C  0.85422434  0.35159595  0.85276543     0.07600
C1532       C  0.85625778  0.34642731  0.89042478    -0.14500
H1533       H  0.87892429  0.36406508  0.94085955     0.11600
H1534       H  0.91453301  0.42180383  0.84670263     0.11600
H1535       H  0.87378924  0.38739004  0.80999914     0.11600
H1536       H  0.83972705  0.32593114  0.90328572     0.11600
C1537       C  0.90130682  0.10197037  0.85782809    -0.14500
C1538       C  0.90066786  0.10561518  0.89528981     0.07600
C1539       C  0.87721405  0.13083825  0.91091173    -0.14500
C1540       C  0.85490945  0.15231337  0.88926504    -0.14500
C1541       C  0.85459722  0.14832639  0.85145133     0.07600
C1542       C  0.87823758  0.12239061  0.83629380    -0.14500
H1543       H  0.91869745  0.08221346  0.84512653     0.11600
H1544       H  0.87622436  0.13399600  0.93987463     0.11600
H1545       H  0.83709849  0.17154147  0.90219420     0.11600
H1546       H  0.87888646  0.11677926  0.80782858     0.11600
C1547       C  0.62563572  0.36954897  0.91479691    -0.14500
C1548       C  0.60289532  0.39614243  0.90061418     0.07600
C1549       C  0.60107919  0.40056120  0.86327193    -0.14500
C1550       C  0.62265727  0.37990758  0.84042339    -0.14500
C1551       C  0.64601537  0.35307819  0.85412670     0.07600
C1552       C  0.64647495  0.34788711  0.89181454    -0.14500
H1553       H  0.62731914  0.36555913  0.94360815     0.11600
H1554       H  0.58394940  0.42114811  0.85165897     0.11600
H1555       H  0.62129850  0.38618726  0.81211495     0.11600
H1556       H  0.66395757  0.32773500  0.90360062     0.11600
C1557       C  0.87232164  0.38260478  0.66125299    -0.14500
C1558       C  0.85202645  0.35323748  0.64751084     0.07600
C1559       C  0.85384737  0.34695385  0.61003132    -0.14500
C1560       C  0.87508788  0.36881956  0.58742823    -0.14500
C1561       C  0.89562709  0.39725064  0.60169630     0.07600
C1562       C  0.89430597  0.40368445  0.63880580    -0.14500
H1563       H  0.87066245  0.39057293  0.68912017     0.11600
H1564       H  0.83797495  0.32547549  0.59806742     0.11600
H1565       H  0.87548594  0.36349763  0.55877796     0.11600
H1566       H  0.90923294  0.42604989  0.65035453     0.11600
C1567       C  0.91748900  0.92110639  0.07822109     0.41300
N1568       N  0.95510871  0.96301260  0.06356769     0.00200
C1569       C  0.95761543  0.56523564  0.40703752    -0.07700
H1570       H  0.97382248  0.93188582  0.38404079     0.05700
C1571       C  0.59303242  0.93685939  0.45802255    -0.08100
Co1572     Co  0.93339578  0.50141499  0.49609810     0.74200
N1573       N  0.96358793  0.96204899  0.43261040    -0.27200
Co1574     Co  0.50422698  0.00148298  0.43440029     0.74100
C1575       C  0.58171549  0.92041754  0.42404287     0.41400
N1576       N  0.56317431  0.96302962  0.04423856    -0.00200
N1577       N  0.54468349  0.96273861  0.43775448    -0.00100
N1578       N  0.91186262  0.56517004  0.44782215    -0.48100
H1579       H  0.88309456  0.93070538  0.02743561     0.05600
N1580       N  0.93674368  0.96146138  0.45626131     0.00200
N1581       N  0.54456239  0.54109471  0.43720592    -0.00100
C1582       C  0.58129653  0.58398808  0.42326752     0.41500
N1583       N  0.53608180  0.96328697  0.06758348    -0.26700
C1584       C  0.90726290  0.56746113  0.04199724    -0.07600
N1585       N  0.94727697  0.93934679  0.08913678    -0.47800
N1586       N  0.55183874  0.56538318  0.41210398    -0.48000
C1587       C  0.91826441  0.58385996  0.07609711     0.41300
N1588       N  0.93668531  0.54060103  0.45566102     0.00200
N1589       N  0.53620285  0.54163602  0.06765167    -0.26700
N1590       N  0.93153487  0.96235519  0.03688067    -0.27200
N1591       N  0.56318529  0.54228826  0.04419179    -0.00200
H1592       H  0.52494101  0.57238027  0.11558493     0.05700
H1593       H  0.61596644  0.57426264  0.47384351     0.05700
N1594       N  0.96361178  0.54010841  0.43214095    -0.27300
N1595       N  0.56857768  0.96298593  0.46416122    -0.26900
N1596       N  0.95529135  0.54133202  0.06268778     0.00200
C1597       C  0.92332793  0.91937335  0.41867561     0.41600
C1598       C  0.54122805  0.93695600  0.09158081    -0.08100
N1599       N  0.56819782  0.54177309  0.46385209    -0.26900
H1600       H  0.61684625  0.93157652  0.47410489     0.05700
N1601       N  0.91191289  0.93653685  0.44874351    -0.48100
H1602       H  0.52408662  0.93146235  0.11463800     0.05700
C1603       C  0.57565723  0.58496761  0.08136582     0.41400
C1604       C  0.90686890  0.93636924  0.04352901    -0.07600
Co1605     Co  0.99565354  0.50231488  0.06594506     0.73800
N1606       N  0.58735172  0.93757553  0.05124247    -0.47800
C1607       C  0.92346512  0.58205456  0.41764775     0.41700
N1608       N  0.94790755  0.56588303  0.08743528    -0.47800
Co1609     Co  0.56663244  0.00253602  0.00423466     0.73900
C1610       C  0.59236277  0.56831651  0.45762126    -0.08100
C1611       C  0.95740306  0.93659490  0.40773828    -0.07700
N1612       N  0.93161483  0.54119913  0.03607675    -0.27200
N1613       N  0.55190892  0.93821568  0.41298422    -0.48000
H1614       H  0.97424139  0.56993778  0.38345398     0.05700
C1615       C  0.54176767  0.56746780  0.09220635    -0.08100
Cl1616     Cl  0.49998062  0.50190050  0.00019105    -0.51100
C1617       C  0.57507283  0.91973452  0.08059663     0.41400
H1618       H  0.88356695  0.57278648  0.02573968     0.05600
N1619       N  0.58762524  0.56762333  0.05160493    -0.47800
C1620       C  0.67391455  0.67261921  0.33009091    -0.03700
C1621       C  0.67321129  0.83274064  0.32992742    -0.03700
C1622       C  0.67160308  0.83386969  0.17104675    -0.03700
C1623       C  0.67184474  0.67378058  0.17091133    -0.03700
C1624       C  0.82665822  0.66929916  0.32856821    -0.03700
C1625       C  0.82512670  0.67121465  0.16951842    -0.03700
C1626       C  0.82476010  0.83144654  0.17083258    -0.03700
C1627       C  0.82613620  0.82995847  0.33014489    -0.03700
C1628       C  0.79537390  0.84774130  0.23218027    -0.14500
C1629       C  0.82688286  0.84151935  0.21166442     0.07600
C1630       C  0.85925947  0.83528529  0.23108012    -0.14500
C1631       C  0.85947498  0.83430089  0.26888562    -0.14500
C1632       C  0.82747254  0.84011448  0.28921132     0.07600
C1633       C  0.79561518  0.84686003  0.26950623    -0.14500
H1634       H  0.76903425  0.84776734  0.22015024     0.11600
H1635       H  0.88395588  0.82839405  0.21679478     0.11600
H1636       H  0.88434436  0.82676570  0.28236740     0.11600
H1637       H  0.76947078  0.84606911  0.28194948     0.11600
C1638       C  0.80708754  0.73231284  0.19275500    -0.14500
C1639       C  0.83128278  0.71279790  0.17083845     0.07600
C1640       C  0.85795004  0.73260658  0.15165009    -0.14500
C1641       C  0.85795168  0.77078822  0.15220063    -0.14500
C1642       C  0.83091541  0.78986802  0.17143760     0.07600
C1643       C  0.80652414  0.76939574  0.19259002    -0.14500
H1644       H  0.78654415  0.71847114  0.20856822     0.11600
H1645       H  0.87835803  0.71896489  0.13581500     0.11600
H1646       H  0.87854574  0.78495228  0.13695484     0.11600
H1647       H  0.78519602  0.78214706  0.20798222     0.11600
C1648       C  0.80292125  0.64106567  0.26766169    -0.14500
C1649       C  0.82990629  0.65910681  0.28755086     0.07600
C1650       C  0.85998826  0.67211857  0.26748192    -0.14500
C1651       C  0.85968913  0.67244592  0.22976854    -0.14500
C1652       C  0.82917495  0.66001020  0.21015304     0.07600
C1653       C  0.80253798  0.64154699  0.23021926    -0.14500
H1654       H  0.78095570  0.62661059  0.27974821     0.11600
H1655       H  0.88270640  0.68467574  0.28115059     0.11600
H1656       H  0.88220256  0.68522511  0.21583806     0.11600
H1657       H  0.78034451  0.62745778  0.21824561     0.11600
C1658       C  0.85896637  0.73056182  0.34790483    -0.14500
C1659       C  0.83251101  0.71100677  0.32828698     0.07600
C1660       C  0.80788198  0.73094581  0.30740878    -0.14500
C1661       C  0.80715623  0.76804313  0.30843850    -0.14500
C1662       C  0.83184751  0.78824691  0.32939423     0.07600
C1663       C  0.85876975  0.76879644  0.34826183    -0.14500
H1664       H  0.87937692  0.71666813  0.36338669     0.11600
H1665       H  0.78724319  0.71737951  0.29161670     0.11600
H1666       H  0.78566241  0.78102773  0.29360991     0.11600
H1667       H  0.87918967  0.78273201  0.36383257     0.11600
C1668       C  0.72965490  0.69379424  0.13580971    -0.14500
C1669       C  0.70997470  0.66635897  0.15355384     0.07600
C1670       C  0.72811560  0.63294995  0.15685643    -0.14500
C1671       C  0.76656824  0.63213392  0.15574787    -0.14500
C1672       C  0.78608689  0.66491273  0.15329529     0.07600
C1673       C  0.76738701  0.69302311  0.13559082    -0.14500
H1674       H  0.71653768  0.71773011  0.12564304     0.11600
H1675       H  0.71339256  0.60919889  0.16562529     0.11600
H1676       H  0.78049317  0.60735992  0.16225968     0.11600
H1677       H  0.78142992  0.71640205  0.12501869     0.11600
C1678       C  0.68991607  0.77260602  0.19336320    -0.14500
C1679       C  0.66561231  0.79230457  0.17191100     0.07600
C1680       C  0.63895795  0.77270808  0.15263908    -0.14500
C1681       C  0.63892596  0.73455047  0.15282593    -0.14500
C1682       C  0.66582930  0.71530845  0.17188442     0.07600
C1683       C  0.69035399  0.73554833  0.19295866    -0.14500
H1684       H  0.71054328  0.78628987  0.20908177     0.11600
H1685       H  0.61861941  0.78649486  0.13697015     0.11600
H1686       H  0.61846441  0.72052669  0.13740357     0.11600
H1687       H  0.71167393  0.72262299  0.20809583     0.11600
C1688       C  0.72912189  0.81265887  0.13611492    -0.14500
C1689       C  0.71043932  0.84053367  0.15430428     0.07600
C1690       C  0.72992643  0.87326814  0.15703070    -0.14500
C1691       C  0.76834657  0.87234775  0.15823096    -0.14500
C1692       C  0.78645665  0.83896681  0.15431029     0.07600
C1693       C  0.76682991  0.81180760  0.13625838    -0.14500
H1694       H  0.71506535  0.78942842  0.12530954     0.11600
H1695       H  0.71598039  0.89798551  0.16388929     0.11600
H1696       H  0.78307259  0.89595429  0.16726590     0.11600
H1697       H  0.77996535  0.78801566  0.12569723     0.11600
C1698       C  0.69555799  0.86232021  0.26915792    -0.14500
C1699       C  0.66899090  0.84379895  0.28929309     0.07600
C1700       C  0.63846920  0.83123854  0.26978912    -0.14500
C1701       C  0.63802443  0.83158280  0.23207615    -0.14500
C1702       C  0.66803015  0.84462681  0.21190233     0.07600
C1703       C  0.69500389  0.86283227  0.23166723    -0.14500
H1704       H  0.71776741  0.87621107  0.28092057     0.11600
H1705       H  0.61608398  0.81838199  0.28378314     0.11600
H1706       H  0.61535977  0.81888349  0.21851673     0.11600
H1707       H  0.71683581  0.87723023  0.21962153     0.11600
C1708       C  0.73163607  0.87203754  0.34362819    -0.14500
C1709       C  0.71214886  0.83927142  0.34621994     0.07600
C1710       C  0.73052643  0.81148711  0.36478918    -0.14500
C1711       C  0.76823075  0.81075621  0.36532070    -0.14500
C1712       C  0.78812257  0.83786352  0.34738899     0.07600
C1713       C  0.77008081  0.87124777  0.34326431    -0.14500
H1714       H  0.71779096  0.89674278  0.33660225     0.11600
H1715       H  0.71631000  0.78827137  0.37551785     0.11600
H1716       H  0.78121466  0.78695909  0.37600024     0.11600
H1717       H  0.78494441  0.89483398  0.33430038     0.11600
C1718       C  0.70274412  0.65597447  0.26861269    -0.14500
C1719       C  0.67142778  0.66255016  0.28928969     0.07600
C1720       C  0.63899720  0.66898456  0.27004170    -0.14500
C1721       C  0.63856531  0.66962773  0.23223326    -0.14500
C1722       C  0.67043417  0.66337144  0.21176462     0.07600
C1723       C  0.70224388  0.65629659  0.23132829    -0.14500
H1724       H  0.72918356  0.65607529  0.28046052     0.11600
H1725       H  0.61446570  0.67625703  0.28441900     0.11600
H1726       H  0.61371070  0.67741820  0.21884963     0.11600
H1727       H  0.72839217  0.65654854  0.21869238     0.11600
C1728       C  0.72990014  0.63096371  0.34187670    -0.14500
C1729       C  0.71212564  0.66445605  0.34639898     0.07600
C1730       C  0.73204098  0.69115233  0.36475496    -0.14500
C1731       C  0.76972487  0.68993477  0.36469109    -0.14500
C1732       C  0.78801595  0.66238385  0.34562828     0.07600
C1733       C  0.76832807  0.62979001  0.34248508    -0.14500
H1734       H  0.71491234  0.60761546  0.33261238     0.11600
H1735       H  0.71913098  0.71492414  0.37566956     0.11600
H1736       H  0.78405157  0.71283256  0.37586907     0.11600
H1737       H  0.78201653  0.60515300  0.33500133     0.11600
C1738       C  0.69280993  0.73448271  0.30835720    -0.14500
C1739       C  0.66822317  0.71420954  0.32946648     0.07600
C1740       C  0.64087240  0.73338093  0.34814292    -0.14500
C1741       C  0.64061272  0.77151622  0.34812487    -0.14500
C1742       C  0.66728704  0.79118467  0.32884169     0.07600
C1743       C  0.69183125  0.77156031  0.30742128    -0.14500
H1744       H  0.71431638  0.72156799  0.29334687     0.11600
H1745       H  0.62012705  0.71932398  0.36328776     0.11600
H1746       H  0.61997426  0.78525976  0.36357586     0.11600
H1747       H  0.71235156  0.78535331  0.29153819     0.11600
C1748       C  0.60372121  0.60163835  0.36263537    -0.14500
C1749       C  0.60286518  0.60801323  0.39974413     0.07600
C1750       C  0.62375992  0.63624007  0.41391054    -0.14500
C1751       C  0.64502767  0.65787903  0.39113146    -0.14500
C1752       C  0.64651510  0.65145872  0.35364467     0.07600
C1753       C  0.62573363  0.62241420  0.34004714    -0.14500
H1754       H  0.58846967  0.57943409  0.35117212     0.11600
H1755       H  0.62368174  0.64151179  0.44256735     0.11600
H1756       H  0.66121250  0.67920198  0.40294370     0.11600
H1757       H  0.62708242  0.61437456  0.31218223     0.11600
C1758       C  0.62168561  0.87105690  0.08773748    -0.16500
C1759       C  0.59757534  0.89589263  0.10305234     0.07600
C1760       C  0.59619514  0.89938112  0.14048630    -0.14500
C1761       C  0.61933921  0.87954495  0.16234827    -0.14500
C1762       C  0.64384319  0.85425446  0.14759908     0.07600
C1763       C  0.64409785  0.85003899  0.10977311    -0.14500
H1764       H  0.62320244  0.86796152  0.05880543     0.11600
H1765       H  0.57823616  0.91877259  0.15299343     0.11600
H1766       H  0.61804209  0.88515666  0.19080059     0.11600
H1767       H  0.66243140  0.83109748  0.09717753     0.11600
C1768       C  0.89719633  0.60278979  0.13672881    -0.14500
C1769       C  0.89655070  0.60784075  0.09943423     0.07600
C1770       C  0.87420703  0.63472683  0.08508088    -0.14500
C1771       C  0.85274205  0.65612501  0.10783389    -0.14500
C1772       C  0.85237221  0.65058260  0.14546676     0.07600
C1773       C  0.87512632  0.62327504  0.15930937    -0.14500
H1774       H  0.91383051  0.58187580  0.14847289     0.11600
H1775       H  0.87330869  0.63914211  0.05629453     0.11600
H1776       H  0.83557503  0.67647989  0.09592049     0.11600
H1777       H  0.87567924  0.61652760  0.18754155     0.11600
C1778       C  0.59878092  0.60420894  0.14116923    -0.14500
C1779       C  0.59819241  0.60911054  0.10385635     0.07600
C1780       C  0.62029926  0.63590040  0.08855675    -0.14500
C1781       C  0.64237918  0.65765212  0.11043737    -0.14500
C1782       C  0.64386215  0.65244442  0.14811766     0.07600
C1783       C  0.62188765  0.62469808  0.16279224    -0.14500
H1784       H  0.58258101  0.58316613  0.15359069     0.11600
H1785       H  0.62045414  0.64002363  0.05970917     0.11600
H1786       H  0.65924344  0.67800513  0.09777245     0.11600
H1787       H  0.62292824  0.61734378  0.19081713     0.11600
C1788       C  0.87860787  0.86832282  0.41193519    -0.14500
C1789       C  0.90026193  0.89537829  0.39640567     0.07600
C1790       C  0.89872451  0.90057525  0.35916107    -0.14500
C1791       C  0.87544781  0.87986198  0.33784980    -0.14500
C1792       C  0.85422543  0.85158831  0.35269268     0.07600
C1793       C  0.85632340  0.84640342  0.39034495    -0.14500
H1794       H  0.87903204  0.86405130  0.44075753     0.11600
H1795       H  0.91439224  0.92191927  0.34659043     0.11600
H1796       H  0.87366634  0.88743414  0.30991602     0.11600
H1797       H  0.83984308  0.82587464  0.40321765     0.11600
C1798       C  0.90120749  0.60193125  0.35777085    -0.14500
C1799       C  0.90065924  0.60566677  0.39522443     0.07600
C1800       C  0.87726511  0.63094134  0.41084612    -0.14500
C1801       C  0.85492444  0.65237935  0.38920653    -0.14500
C1802       C  0.85452873  0.64831482  0.35140367     0.07600
C1803       C  0.87810610  0.62232375  0.33624478    -0.14500
H1804       H  0.91854780  0.58212529  0.34507752     0.11600
H1805       H  0.87634651  0.63416345  0.43980404     0.11600
H1806       H  0.83715722  0.67164806  0.40213475     0.11600
H1807       H  0.87867446  0.61664745  0.30779046     0.11600
C1808       C  0.62568244  0.86969279  0.41477195    -0.14500
C1809       C  0.60290433  0.89624340  0.40057155     0.07600
C1810       C  0.60104906  0.90060747  0.36322451    -0.14500
C1811       C  0.62262744  0.87994142  0.34038660    -0.14500
C1812       C  0.64602087  0.85315203  0.35410918     0.07600
C1813       C  0.64651374  0.84801263  0.39180335    -0.14500
H1814       H  0.62739754  0.86574613  0.44358708     0.11600
H1815       H  0.58388672  0.92115937  0.35159769     0.11600
H1816       H  0.62123787  0.88617826  0.31207064     0.11600
H1817       H  0.66401917  0.82788974  0.40360514     0.11600
C1818       C  0.87229822  0.88253063  0.16126811    -0.14500
C1819       C  0.85204705  0.85314117  0.14750385     0.07600
C1820       C  0.85392864  0.84685001  0.11003018    -0.14500
C1821       C  0.87520044  0.86871592  0.08745707    -0.14500
C1822       C  0.89569941  0.89716430  0.10174769     0.07600
C1823       C  0.89430843  0.90361641  0.13885082    -0.14500
H1824       H  0.87058070  0.89051418  0.18912759     0.11600
H1825       H  0.83808105  0.82536430  0.09804688     0.11600
H1826       H  0.87564881  0.86338474  0.05880869     0.11600
H1827       H  0.90919554  0.92600044  0.15041278     0.11600
C1828       C  0.91741250  0.92118182  0.57815438     0.41300
N1829       N  0.95503766  0.96308482  0.56350250     0.00200
C1830       C  0.95761973  0.56516412  0.90709370    -0.07700
H1831       H  0.97385574  0.93178195  0.88413850     0.05700
C1832       C  0.59305635  0.93678360  0.95805434    -0.08100
Co1833     Co  0.93344011  0.50134143  0.99616723     0.74200
N1834       N  0.96362198  0.96197361  0.93268791    -0.27200
Co1835     Co  0.50425189  0.00141520  0.93444033     0.74100
C1836       C  0.58171196  0.92031374  0.92409561     0.41400
N1837       N  0.56310809  0.96305580  0.54423219    -0.00200
N1838       N  0.54471080  0.96267047  0.93778921    -0.00100
N1839       N  0.91187401  0.56509177  0.94788574    -0.48100
H1840       H  0.88302528  0.93078124  0.52736148     0.05600
N1841       N  0.93678566  0.96138914  0.95634632     0.00200
N1842       N  0.54459385  0.54103294  0.93720437    -0.00100
C1843       C  0.58135383  0.58389501  0.92322541     0.41500
N1844       N  0.53600881  0.96332708  0.56756950    -0.26700
C1845       C  0.90723889  0.56756165  0.54193108    -0.07600
N1846       N  0.94720154  0.93941914  0.58906831    -0.47800
N1847       N  0.55188468  0.56529465  0.91207810    -0.48000
C1848       C  0.91826045  0.58396940  0.57602449     0.41300
N1849       N  0.93670386  0.54052621  0.95572098     0.00200
N1850       N  0.53617089  0.54167850  0.56764340    -0.26700
N1851       N  0.93146830  0.96242814  0.53681110    -0.27200
N1852       N  0.56315577  0.54231536  0.54418673    -0.00200
H1853       H  0.52495030  0.57241106  0.61559715     0.05700
H1854       H  0.61602485  0.57418850  0.97380294     0.05700
N1855       N  0.96362588  0.54003706  0.93219469    -0.27300
N1856       N  0.56861858  0.96293009  0.96418323    -0.26900
N1857       N  0.95525459  0.54140860  0.56262066     0.00200
C1858       C  0.92337147  0.91927835  0.91879206     0.41600
C1859       C  0.54114432  0.93700649  0.59158392    -0.08100
N1860       N  0.56823281  0.54172280  0.96384713    -0.26900
H1861       H  0.61687068  0.93149500  0.97413395     0.05700
N1862       N  0.91195923  0.93645508  0.94885142    -0.48100
H1863       H  0.52399280  0.93152883  0.61463649     0.05700
C1864       C  0.57567631  0.58496787  0.58137637     0.41400
C1865       C  0.90679699  0.93644430  0.54345814    -0.07600
Co1866     Co  0.99559587  0.50237366  0.56590337     0.73800
N1867       N  0.58727983  0.93760093  0.55125836    -0.47800
C1868       C  0.92346579  0.58197784  0.91770644     0.41700
N1869       N  0.94789488  0.56597659  0.58735685    -0.47800
Co1870     Co  0.56658765  0.00257258  0.50422547     0.73900
C1871       C  0.59241172  0.56824778  0.95759221    -0.08100
C1872       C  0.95744031  0.93650070  0.90783718    -0.07700
N1873       N  0.93157345  0.54127925  0.53601293    -0.27200
N1874       N  0.55190950  0.93812024  0.91303801    -0.48000
H1875       H  0.97424351  0.56986979  0.88350906     0.05700
C1876       C  0.54176712  0.56749409  0.59221263    -0.08100
Cl1877     Cl  0.49993715  0.50195568  0.50015195    -0.51100
C1878       C  0.57499448  0.91977511  0.58062218     0.41400
H1879       H  0.88354794  0.57290324  0.52567225     0.05600
N1880       N  0.58762144  0.56762285  0.55160875    -0.47800
C1881       C  0.67395611  0.67256519  0.83005074    -0.03700
C1882       C  0.67320392  0.83267729  0.82993238    -0.03700
C1883       C  0.67158211  0.83390395  0.67105187    -0.03700
C1884       C  0.67191305  0.67379870  0.67088401    -0.03700
C1885       C  0.82674925  0.66932300  0.82859018    -0.03700
C1886       C  0.82521565  0.67132196  0.66954763    -0.03700
C1887       C  0.82476380  0.83154981  0.67087401    -0.03700
C1888       C  0.82616227  0.82997047  0.83018405    -0.03700
C1889       C  0.79540490  0.84785376  0.73223193    -0.14500
C1890       C  0.82690584  0.84163159  0.71170479     0.07600
C1891       C  0.85928613  0.83538678  0.73111336    -0.14500
C1892       C  0.85950477  0.83436780  0.76891957    -0.14500
C1893       C  0.82750467  0.84016754  0.78925564     0.07600
C1894       C  0.79565050  0.84694310  0.76955543    -0.14500
H1895       H  0.76905776  0.84790032  0.72020834     0.11600
H1896       H  0.88398009  0.82849939  0.71682020     0.11600
H1897       H  0.88437428  0.82681256  0.78239133     0.11600
H1898       H  0.76950140  0.84614916  0.78199566     0.11600
C1899       C  0.80716100  0.73240582  0.69282074    -0.14500
C1900       C  0.83135757  0.71290598  0.67089057     0.07600
C1901       C  0.85800642  0.73272972  0.65169452    -0.14500
C1902       C  0.85798388  0.77091053  0.65224334    -0.14500
C1903       C  0.83093872  0.78997460  0.67148356     0.07600
C1904       C  0.80656945  0.76949018  0.69264910    -0.14500
H1905       H  0.78663269  0.71855079  0.70864133     0.11600
H1906       H  0.87841407  0.71909870  0.63584875     0.11600
H1907       H  0.87856355  0.78508714  0.63698966     0.11600
H1908       H  0.78523995  0.78223231  0.70804773     0.11600
C1909       C  0.80304523  0.64108091  0.76767532    -0.14500
C1910       C  0.83002422  0.65912527  0.78757297     0.07600
C1911       C  0.86009846  0.67216306  0.76750880    -0.14500
C1912       C  0.85978999  0.67252400  0.72979539    -0.14500
C1913       C  0.82927820  0.66008738  0.71017382     0.07600
C1914       C  0.80265749  0.64159633  0.73023299    -0.14500
H1915       H  0.78109628  0.62660899  0.77975979     0.11600
H1916       H  0.88281053  0.68472479  0.78118281     0.11600
H1917       H  0.88229460  0.68532846  0.71587139     0.11600
H1918       H  0.78045604  0.62750445  0.71824534     0.11600
C1919       C  0.85901285  0.73058792  0.84799066    -0.14500
C1920       C  0.83261134  0.71102859  0.82830824     0.07600
C1921       C  0.80802850  0.73096289  0.80736974    -0.14500
C1922       C  0.80729012  0.76805798  0.80839471    -0.14500
C1923       C  0.83192049  0.78826675  0.82941198     0.07600
C1924       C  0.85880468  0.76882351  0.84834457    -0.14500
H1925       H  0.87937687  0.71669625  0.86353481     0.11600
H1926       H  0.78742393  0.71739438  0.79153537     0.11600
H1927       H  0.78582333  0.78103496  0.79352024     0.11600
H1928       H  0.87917439  0.78276323  0.86397504     0.11600
C1929       C  0.72972972  0.69387193  0.63582596    -0.14500
C1930       C  0.71005387  0.66640993  0.65353322     0.07600
C1931       C  0.72821669  0.63301082  0.65682007    -0.14500
C1932       C  0.76667208  0.63222366  0.65574883    -0.14500
C1933       C  0.78617156  0.66501782  0.65333334     0.07600
C1934       C  0.76746241  0.69313027  0.63564129    -0.14500
H1935       H  0.71660463  0.71780538  0.62566405     0.11600
H1936       H  0.71350389  0.60924161  0.66555745     0.11600
H1937       H  0.78060836  0.60745459  0.66224708     0.11600
H1938       H  0.78149466  0.71652503  0.62509215     0.11600
C1939       C  0.68992021  0.77263697  0.69336536    -0.14500
C1940       C  0.66562289  0.79233079  0.67189886     0.07600
C1941       C  0.63900403  0.77272329  0.65259066    -0.14500
C1942       C  0.63898596  0.73456394  0.65277492    -0.14500
C1943       C  0.66587079  0.71532710  0.67186523     0.07600
C1944       C  0.69036769  0.73557645  0.69296427    -0.14500
H1945       H  0.71052895  0.78632654  0.70910157     0.11600
H1946       H  0.61868492  0.78650513  0.63689117     0.11600
H1947       H  0.61855095  0.72053483  0.63732277     0.11600
H1948       H  0.71167472  0.72265559  0.70812380     0.11600
C1949       C  0.72912869  0.81273284  0.63613951    -0.14500
C1950       C  0.71042445  0.84059586  0.65432492     0.07600
C1951       C  0.72990071  0.87333664  0.65707022    -0.14500
C1952       C  0.76832267  0.87242772  0.65828655    -0.14500
C1953       C  0.78644717  0.83905274  0.65437081     0.07600
C1954       C  0.76683616  0.81188881  0.63631121    -0.14500
H1955       H  0.71508658  0.78950243  0.62531620     0.11600
H1956       H  0.71594475  0.89804573  0.66392794     0.11600
H1957       H  0.78303718  0.89603925  0.66732561     0.11600
H1958       H  0.77998408  0.78810249  0.62575170     0.11600
C1959       C  0.69553517  0.86230778  0.76918002    -0.14500
C1960       C  0.66898030  0.84376476  0.78930668     0.07600
C1961       C  0.63845933  0.83120711  0.76979897    -0.14500
C1962       C  0.63801531  0.83156098  0.73208789    -0.14500
C1963       C  0.66800362  0.84464759  0.71191424     0.07600
C1964       C  0.69497018  0.86285267  0.73169322    -0.14500
H1965       H  0.71775194  0.87620088  0.78096555     0.11600
H1966       H  0.61607780  0.81833320  0.78378876     0.11600
H1967       H  0.61535888  0.81884365  0.71852575     0.11600
H1968       H  0.71680270  0.87727599  0.71964800     0.11600
C1969       C  0.73162099  0.87197139  0.84367631    -0.14500
C1970       C  0.71214478  0.83919376  0.84622441     0.07600
C1971       C  0.73053391  0.81138867  0.86475066    -0.14500
C1972       C  0.76823880  0.81067199  0.86528619    -0.14500
C1973       C  0.78812718  0.83782159  0.84741350     0.07600
C1974       C  0.77006772  0.87120248  0.84333706    -0.14500
H1975       H  0.71776868  0.89667702  0.83667609     0.11600
H1976       H  0.71632700  0.78815365  0.87544758     0.11600
H1977       H  0.78122821  0.78686446  0.87593484     0.11600
H1978       H  0.78492301  0.89481200  0.83442060     0.11600
C1979       C  0.70279396  0.65589270  0.76858080    -0.14500
C1980       C  0.67147525  0.66248385  0.78925331     0.07600
C1981       C  0.63904808  0.66892938  0.77000523    -0.14500
C1982       C  0.63862798  0.66961506  0.73219873    -0.14500
C1983       C  0.67050327  0.66337507  0.71173298     0.07600
C1984       C  0.70229956  0.65626136  0.73129814    -0.14500
H1985       H  0.72922471  0.65594656  0.78043145     0.11600
H1986       H  0.61451448  0.67619292  0.78438305     0.11600
H1987       H  0.61377666  0.67741962  0.71881525     0.11600
H1988       H  0.72846323  0.65650508  0.71866783     0.11600
C1989       C  0.72997977  0.63096919  0.84188398    -0.14500
C1990       C  0.71217953  0.66445331  0.84636294     0.07600
C1991       C  0.73207855  0.69118872  0.86468066    -0.14500
C1992       C  0.76976361  0.68999773  0.86462100    -0.14500
C1993       C  0.78808220  0.66242720  0.84560952     0.07600
C1994       C  0.76840912  0.62982176  0.84249450    -0.14500
H1995       H  0.71500758  0.60759802  0.83265167     0.11600
H1996       H  0.71915345  0.71496325  0.87557010     0.11600
H1997       H  0.78406918  0.71291631  0.87578119     0.11600
H1998       H  0.78211372  0.60518212  0.83504341     0.11600
C1999       C  0.69278963  0.73443550  0.80828431    -0.14500
C2000       C  0.66822479  0.71415030  0.82940898     0.07600
C2001       C  0.64086891  0.73330733  0.84809146    -0.14500
C2002       C  0.64060054  0.77144215  0.84808673    -0.14500
C2003       C  0.66727408  0.79112280  0.82881498     0.07600
C2004       C  0.69180815  0.77151302  0.80736932    -0.14500
H2005       H  0.71429270  0.72153067  0.79326001     0.11600
H2006       H  0.62013071  0.71923963  0.86323715     0.11600
H2007       H  0.61995975  0.78517496  0.86354417     0.11600
H2008       H  0.71232323  0.78531552  0.79148785     0.11600
C2009       C  0.60382159  0.60151790  0.86259319    -0.14500
C2010       C  0.60292761  0.60791609  0.89969736     0.07600
C2011       C  0.62378875  0.63616999  0.91386112    -0.14500
C2012       C  0.64505605  0.65781497  0.89108568    -0.14500
C2013       C  0.64657144  0.65138103  0.85360332     0.07600
C2014       C  0.62582799  0.62230693  0.84000760    -0.14500
H2015       H  0.58860009  0.57929188  0.85113314     0.11600
H2016       H  0.62368292  0.64146007  0.94251477     0.11600
H2017       H  0.66121393  0.67915853  0.90289735     0.11600
H2018       H  0.62720004  0.61426024  0.81214532     0.11600
C2019       C  0.62172054  0.87119148  0.58774040    -0.16500
C2020       C  0.59747630  0.89589152  0.60307052     0.07600
C2021       C  0.59596262  0.89921934  0.64051627    -0.14500
C2022       C  0.61913517  0.87940123  0.66237246    -0.14500
C2023       C  0.64379379  0.85426742  0.64760312     0.07600
C2024       C  0.64414583  0.85017148  0.60976424    -0.14500
H2025       H  0.62333910  0.86820920  0.55880124     0.11600
H2026       H  0.57788664  0.91848775  0.65304700     0.11600
H2027       H  0.61772997  0.88490545  0.69083860     0.11600
H2028       H  0.66257740  0.83133672  0.59714802     0.11600
C2029       C  0.89731427  0.60296504  0.63667630    -0.14500
C2030       C  0.89657965  0.60797039  0.59937663     0.07600
C2031       C  0.87419260  0.63483383  0.58504610    -0.14500
C2032       C  0.85276346  0.65624131  0.60782658    -0.14500
C2033       C  0.85245928  0.65071879  0.64546447     0.07600
C2034       C  0.87527327  0.62345051  0.65928408    -0.14500
H2035       H  0.91399352  0.58207968  0.64840884     0.11600
H2036       H  0.87323072  0.63922255  0.55625827     0.11600
H2037       H  0.83556121  0.67657670  0.59593005     0.11600
H2038       H  0.87589478  0.61672984  0.68752028     0.11600
C2039       C  0.59886471  0.60418730  0.64116549    -0.14500
C2040       C  0.59824006  0.60909991  0.60385614     0.07600
C2041       C  0.62034239  0.63588992  0.58854535    -0.14500
C2042       C  0.64243911  0.65764154  0.61041335    -0.14500
C2043       C  0.64394081  0.65243822  0.64809268     0.07600
C2044       C  0.62198645  0.62467671  0.66277438    -0.14500
H2045       H  0.58267663  0.58313935  0.65359408     0.11600
H2046       H  0.62047650  0.64001697  0.55969851     0.11600
H2047       H  0.65929404  0.67799711  0.59773989     0.11600
H2048       H  0.62304867  0.61731370  0.69079573     0.11600
C2049       C  0.87855283  0.86831679  0.91203449    -0.14500
C2050       C  0.90028529  0.89531598  0.89651493     0.07600
C2051       C  0.89880501  0.90049908  0.85926736    -0.14500
C2052       C  0.87551422  0.87982557  0.83793865    -0.14500
C2053       C  0.85422480  0.85159549  0.85276640     0.07600
C2054       C  0.85625952  0.84642600  0.89042555    -0.14500
H2055       H  0.87892760  0.86406284  0.94085997     0.11600
H2056       H  0.91453170  0.92180490  0.84670340     0.11600
H2057       H  0.87378736  0.88739125  0.81000043     0.11600
H2058       H  0.83972952  0.82592928  0.90328651     0.11600
C2059       C  0.90130789  0.60197082  0.85782762    -0.14500
C2060       C  0.90066784  0.60561453  0.89528947     0.07600
C2061       C  0.87721323  0.63083681  0.91091144    -0.14500
C2062       C  0.85490882  0.65231212  0.88926477    -0.14500
C2063       C  0.85459738  0.64832595  0.85145095     0.07600
C2064       C  0.87823871  0.62239114  0.83629329    -0.14500
H2065       H  0.91869929  0.58221466  0.84512594     0.11600
H2066       H  0.87622274  0.63399381  0.93987440     0.11600
H2067       H  0.83709728  0.67153962  0.90219403     0.11600
H2068       H  0.87888843  0.61678060  0.80782793     0.11600
C2069       C  0.62563614  0.86954872  0.91479727    -0.14500
C2070       C  0.60289488  0.89614139  0.90061444     0.07600
C2071       C  0.60107784  0.90055914  0.86327209    -0.14500
C2072       C  0.62265616  0.87990565  0.84042362    -0.14500
C2073       C  0.64601535  0.85307724  0.85412705     0.07600
C2074       C  0.64647544  0.84788678  0.89181499    -0.14500
H2075       H  0.62732025  0.86555955  0.94360859     0.11600
H2076       H  0.58394725  0.92114528  0.85165897     0.11600
H2077       H  0.62129668  0.88618473  0.81211508     0.11600
H2078       H  0.66395865  0.82773527  0.90360121     0.11600
C2079       C  0.87232128  0.88260583  0.66125423    -0.14500
C2080       C  0.85202715  0.85323772  0.64751232     0.07600
C2081       C  0.85384865  0.84695346  0.61003294    -0.14500
C2082       C  0.87508895  0.86881918  0.58742975    -0.14500
C2083       C  0.89562718  0.89725106  0.60169757     0.07600
C2084       C  0.89430528  0.90368569  0.63880691    -0.14500
H2085       H  0.87066142  0.89057441  0.68912125     0.11600
H2086       H  0.83797687  0.82547454  0.59806921     0.11600
H2087       H  0.87548763  0.86349666  0.55877960     0.11600
H2088       H  0.90923144  0.92605181  0.65035535     0.11600
loop_ 
_geom_bond_atom_site_label_1 
_geom_bond_atom_site_label_2 
_geom_bond_distance 
_geom_bond_site_symmetry_2 
_ccdc_geom_bond_type 
C1           N19   1.350       .  A
C1           C38   1.463       .  S
C1          C256   1.479       .  S
N2           N19   1.324       .  A
N2           N24   1.320       .  A
N2         Co561   2.085       .  S
C3           N28   1.339       .  A
C3           C41   1.459       .  S
C3           H48   1.081       .  S
H4           C45   1.081       .  S
C5           N29   1.345       .  A
C5            C9   1.464       .  S
C5           H34   1.081       .  S
Co6          N22   2.094       .  S
Co6         N807   2.095   1_545  S
Co6         N536   2.099   1_545  S
Co6         N307   2.097       .  S
Co6       Cl1355   2.455       .  S
N7           C45   1.341       .  A
N7           N14   1.321       .  A
N7        Co1052   2.090       .  S
Co8          N11   2.079       .  S
Co8        N1051   2.090   1_455  S
Co8        N1594   2.078   1_455  S
Co8         N537   2.088       .  S
Co8        Cl833   2.449   1_455  S
C9           N47   1.348       .  A
C9          C243   1.475       .  S
N10          N17   1.320       .  A
N10          N40   1.327       .  A
N10         Co43   2.092       .  S
N11          N29   1.320       .  A
N11          N47   1.322       .  A
N12          C41   1.352       .  A
N12          N22   1.327       .  A
H13          C38   1.082       .  S
N14          N35   1.328       .  A
N14        Co528   2.099       .  S
N15          N33   1.321       .  A
N15          N20   1.323       .  A
N15        Co530   2.088       .  S
C16          N20   1.350       .  A
C16          C44   1.463       .  S
C16         C183   1.477       .  S
N17          C32   1.338       .  A
N17       Co1605   2.082   1_455  S
C18          N46   1.345       .  A
C18          C21   1.464       .  S
C18          H52   1.082       .  S
C21          N42   1.350       .  A
C21         C203   1.478       .  S
N22          N28   1.320       .  A
N23          C49   1.339       .  A
N23          N25   1.320       .  A
N23       Co1083   2.085   1_455  S
N24          C38   1.344       .  A
N24        Co789   2.095   1_554  S
N25          N53   1.328       .  A
N25        Co565   2.098       .  S
H26          C49   1.082       .  S
H27          C44   1.081       .  S
N28       Co1574   2.078       .  S
N29        Co304   2.093       .  S
N30          N42   1.323       .  A
N30          N46   1.320       .  A
N30         Co39   2.083       .  S
C31          N35   1.353       .  A
C31          C45   1.462       .  S
C31         C223   1.483       .  S
C32          C51   1.460       .  S
C32          H36   1.082       .  S
N33          C44   1.344       .  A
N33        Co826   2.091       .  S
C37          N53   1.353       .  A
C37          C49   1.460       .  S
C37         C213   1.479       .  S
Co39        N524   2.085   1_545  S
Co39       N1583   2.082   1_545  S
Co39       N1067   2.085       .  S
Co39      Cl1094   2.449       .  S
N40          C51   1.352       .  A
C41         C233   1.476       .  S
Co43        N547   2.098       .  S
Co43        N290   2.094   1_554  S
Co43        N816   2.091   1_554  S
Co43       Cl572   2.459   1_455  S
N46        Co267   2.096   1_554  S
Cl50      Co1311   2.455   1_554  S
Cl50       Co791   2.449   1_654  S
Cl50      Co1083   2.449       .  S
Cl50       Co565   2.459   1_655  S
C51         C193   1.475       .  S
C54         C153   1.565       .  S
C54         C163   1.564       .  S
C54         C173   1.559       .  S
C54         C186   1.546       .  S
C55         C133   1.573       .  S
C55         C143   1.576       .  S
C55         C176   1.558       .  S
C55         C246   1.544       .  S
C56         C113   1.558       .  S
C56         C123   1.576       .  S
C56         C136   1.575       .  S
C56         C196   1.545       .  S
C57         C103   1.568       .  S
C57         C116   1.559       .  S
C57         C156   1.568       .  S
C57         C216   1.551       .  S
C58          C83   1.575       .  S
C58          C93   1.562       .  S
C58         C166   1.576       .  S
C58         C236   1.546       .  S
C59          C73   1.560       .  S
C59          C86   1.574       .  S
C59         C106   1.577       .  S
C59         C206   1.547       .  S
C60          C63   1.565       .  S
C60          C76   1.561       .  S
C60         C126   1.566       .  S
C60         C253   1.548       .  S
C61          C66   1.568       .  S
C61          C96   1.564       .  S
C61         C146   1.566       .  S
C61         C226   1.554       .  S
C62          H68   1.069       .  S
C62          C63   1.406       .  A
C62          C67   1.388       .  A
C63          C64   1.415       .  A
C64          H69   1.083       .  S
C64          C65   1.406       .  A
C65          H70   1.083       .  S
C65          C66   1.415       .  A
C66          C67   1.408       .  A
C67          H71   1.067       .  S
C72          H78   1.084       .  S
C72          C73   1.408       .  A
C72          C77   1.377       .  A
C73          C74   1.415       .  A
C74          H79   1.081       .  S
C74          C75   1.417       .  A
C75          H80   1.080       .  S
C75          C76   1.416       .  A
C76          C77   1.411       .  A
C77          H81   1.081       .  S
C82          H88   1.067       .  S
C82          C83   1.408       .  A
C82          C87   1.392       .  A
C83          C84   1.417       .  A
C84          H89   1.084       .  S
C84          C85   1.402       .  A
C85          H90   1.084       .  S
C85          C86   1.417       .  A
C86          C87   1.406       .  A
C87          H91   1.067       .  S
C92          H98   1.080       .  S
C92          C93   1.416       .  A
C92          C97   1.419       .  A
C93          C94   1.408       .  A
C94          H99   1.084       .  S
C94          C95   1.378       .  A
C95         H100   1.081       .  S
C95          C96   1.412       .  A
C96          C97   1.416       .  A
C97         H101   1.080       .  S
C102        H108   1.082       .  S
C102        C103   1.410       .  A
C102        C107   1.389       .  A
C103        C104   1.416       .  A
C104        H109   1.083       .  S
C104        C105   1.417       .  A
C105        H110   1.082       .  S
C105        C106   1.413       .  A
C106        C107   1.416       .  A
C107        H111   1.082       .  S
C112        H118   1.084       .  S
C112        C113   1.407       .  A
C112        C117   1.376       .  A
C113        C114   1.416       .  A
C114        H119   1.080       .  S
C114        C115   1.416       .  A
C115        H120   1.080       .  S
C115        C116   1.415       .  A
C116        C117   1.411       .  A
C117        H121   1.081       .  S
C122        H128   1.082       .  S
C122        C123   1.416       .  A
C122        C127   1.389       .  A
C123        C124   1.412       .  A
C124        H129   1.083       .  S
C124        C125   1.416       .  A
C125        H130   1.082       .  S
C125        C126   1.417       .  A
C126        C127   1.409       .  A
C127        H131   1.082       .  S
C132        H138   1.060       .  S
C132        C133   1.407       .  A
C132        C137   1.394       .  A
C133        C134   1.416       .  A
C134        H139   1.082       .  S
C134        C135   1.402       .  A
C135        H140   1.083       .  S
C135        C136   1.417       .  A
C136        C137   1.408       .  A
C137        H141   1.061       .  S
C142        H148   1.083       .  S
C142        C143   1.413       .  A
C142        C147   1.416       .  A
C143        C144   1.416       .  A
C144        H149   1.082       .  S
C144        C145   1.389       .  A
C145        H150   1.082       .  S
C145        C146   1.409       .  A
C146        C147   1.417       .  A
C147        H151   1.083       .  S
C152        H158   1.070       .  S
C152        C153   1.406       .  A
C152        C157   1.386       .  A
C153        C154   1.415       .  A
C154        H159   1.083       .  S
C154        C155   1.406       .  A
C155        H160   1.083       .  S
C155        C156   1.416       .  A
C156        C157   1.406       .  A
C157        H161   1.070       .  S
C162        H168   1.082       .  S
C162        C163   1.417       .  A
C162        C167   1.416       .  A
C163        C164   1.408       .  A
C164        H169   1.082       .  S
C164        C165   1.388       .  A
C165        H170   1.082       .  S
C165        C166   1.416       .  A
C166        C167   1.413       .  A
C167        H171   1.082       .  S
C172        H178   1.081       .  S
C172        C173   1.411       .  A
C172        C177   1.377       .  A
C173        C174   1.416       .  A
C174        H179   1.080       .  S
C174        C175   1.416       .  A
C175        H180   1.081       .  S
C175        C176   1.415       .  A
C176        C177   1.408       .  A
C177        H181   1.084       .  S
C182        H188   1.083       .  S
C182        C183   1.400       .  A
C182        C187   1.395       .  A
C183        C184   1.401       .  A
C184        H189   1.083       .  S
C184        C185   1.402       .  A
C185        H190   1.083       .  S
C185        C186   1.415       .  A
C186        C187   1.414       .  A
C187        H191   1.079       .  S
C192        H198   1.083       .  S
C192        C193   1.402       .  A
C192        C197   1.403       .  A
C193        C194   1.398       .  A
C194        H199   1.083       .  S
C194        C195   1.392       .  A
C195        H200   1.079       .  S
C195        C196   1.414       .  A
C196        C197   1.415       .  A
C197        H201   1.082       .  S
C202        H208   1.083       .  S
C202        C203   1.399       .  A
C202        C207   1.394       .  A
C203        C204   1.402       .  A
C204        H209   1.083       .  S
C204        C205   1.404       .  A
C205        H210   1.083       .  S
C205        C206   1.414       .  A
C206        C207   1.415       .  A
C207        H211   1.079       .  S
C212        H218   1.083       .  S
C212        C213   1.399       .  A
C212        C217   1.395       .  A
C213        C214   1.402       .  A
C214        H219   1.083       .  S
C214        C215   1.405       .  A
C215        H220   1.083       .  S
C215        C216   1.415       .  A
C216        C217   1.415       .  A
C217        H221   1.078       .  S
C222        H228   1.083       .  S
C222        C223   1.403       .  A
C222        C227   1.406       .  A
C223        C224   1.399       .  A
C224        H229   1.083       .  S
C224        C225   1.397       .  A
C225        H230   1.078       .  S
C225        C226   1.417       .  A
C226        C227   1.415       .  A
C227        H231   1.083       .  S
C232        H238   1.083       .  S
C232        C233   1.399       .  A
C232        C237   1.395       .  A
C233        C234   1.401       .  A
C234        H239   1.083       .  S
C234        C235   1.402       .  A
C235        H240   1.083       .  S
C235        C236   1.413       .  A
C236        C237   1.416       .  A
C237        H241   1.079       .  S
C242        H248   1.083       .  S
C242        C243   1.401       .  A
C242        C247   1.402       .  A
C243        C244   1.400       .  A
C244        H249   1.083       .  S
C244        C245   1.393       .  A
C245        H250   1.079       .  S
C245        C246   1.414       .  A
C246        C247   1.414       .  A
C247        H251   1.082       .  S
C252        H258   1.079       .  S
C252        C253   1.415       .  A
C252        C257   1.398       .  A
C253        C254   1.414       .  A
C254        H259   1.083       .  S
C254        C255   1.402       .  A
C255        H260   1.083       .  S
C255        C256   1.401       .  A
C256        C257   1.401       .  A
C257        H261   1.083       .  S
C262        N280   1.350       .  A
C262        C299   1.463       .  S
C262        C517   1.479       .  S
N263        N280   1.324       .  A
N263        N285   1.320       .  A
N263       Co822   2.085       .  S
C264        N289   1.339       .  A
C264        C302   1.459       .  S
C264        H309   1.081       .  S
H265        C306   1.081       .  S
C266        N290   1.345       .  A
C266        C270   1.464       .  S
C266        H295   1.081       .  S
Co267       N546   2.095   1_546  S
Co267       N797   2.099   1_545  S
Co267       N283   2.095       .  S
Co267     Cl1094   2.455   1_556  S
N268        C306   1.341       .  A
N268        N275   1.321       .  A
N268      Co1313   2.090       .  S
Co269      N1312   2.090   1_455  S
Co269       N272   2.079       .  S
Co269      N1855   2.078   1_455  S
Co269       N798   2.089       .  S
Co269      Cl572   2.449   1_456  S
C270        N308   1.348       .  A
C270        C504   1.475       .  S
N271        N278   1.320       .  A
N271        N301   1.327       .  A
N271       Co304   2.092       .  S
N272        N290   1.320       .  A
N272        N308   1.322       .  A
N273        C302   1.352       .  A
N273        N283   1.327       .  A
H274        C299   1.082       .  S
N275        N296   1.328       .  A
N275       Co789   2.099       .  S
N276        N294   1.321       .  A
N276        N281   1.324       .  A
N276       Co791   2.089       .  S
C277        N281   1.350       .  A
C277        C305   1.463       .  S
C277        C444   1.477       .  S
N278        C293   1.338       .  A
N278      Co1866   2.082   1_455  S
C279        N307   1.345       .  A
C279        C282   1.464       .  S
C279        H313   1.082       .  S
C282        N303   1.350       .  A
C282        C464   1.478       .  S
N283        N289   1.320       .  A
N284        C310   1.340       .  A
N284        N286   1.320       .  A
N284      Co1344   2.085   1_455  S
N285        C299   1.345       .  A
N285       Co528   2.095       .  S
N286        N314   1.328       .  A
N286       Co826   2.097       .  S
H287        C310   1.082       .  S
H288        C305   1.081       .  S
N289      Co1835   2.078       .  S
N291        N303   1.323       .  A
N291        N307   1.320       .  A
N291       Co300   2.083       .  S
C292        N296   1.353       .  A
C292        C306   1.462       .  S
C292        C484   1.482       .  S
C293        C312   1.460       .  S
C293        H297   1.082       .  S
N294        C305   1.344       .  A
N294       Co565   2.091   1_556  S
C298        N314   1.353       .  A
C298        C310   1.460       .  S
C298        C474   1.479       .  S
Co300       N785   2.085   1_545  S
Co300      N1844   2.082   1_545  S
Co300      N1328   2.085       .  S
Co300     Cl1355   2.449       .  S
N301        C312   1.352       .  A
C302        C494   1.476       .  S
Co304       N808   2.097       .  S
Co304       N555   2.091       .  S
Co304      Cl833   2.459   1_455  S
Cl311     Co1050   2.455       .  S
Cl311      Co530   2.449   1_655  S
Cl311     Co1344   2.449       .  S
Cl311      Co826   2.459   1_655  S
C312        C454   1.476       .  S
C315        C414   1.565       .  S
C315        C424   1.564       .  S
C315        C434   1.559       .  S
C315        C447   1.546       .  S
C316        C394   1.573       .  S
C316        C404   1.576       .  S
C316        C437   1.558       .  S
C316        C507   1.544       .  S
C317        C374   1.558       .  S
C317        C384   1.576       .  S
C317        C397   1.576       .  S
C317        C457   1.546       .  S
C318        C364   1.569       .  S
C318        C377   1.559       .  S
C318        C417   1.568       .  S
C318        C477   1.551       .  S
C319        C344   1.575       .  S
C319        C354   1.562       .  S
C319        C427   1.576       .  S
C319        C497   1.547       .  S
C320        C334   1.560       .  S
C320        C347   1.574       .  S
C320        C367   1.577       .  S
C320        C467   1.547       .  S
C321        C324   1.565       .  S
C321        C337   1.561       .  S
C321        C387   1.566       .  S
C321        C514   1.548       .  S
C322        C327   1.568       .  S
C322        C357   1.564       .  S
C322        C407   1.566       .  S
C322        C487   1.554       .  S
C323        H329   1.069       .  S
C323        C324   1.406       .  A
C323        C328   1.388       .  A
C324        C325   1.415       .  A
C325        H330   1.083       .  S
C325        C326   1.406       .  A
C326        H331   1.083       .  S
C326        C327   1.415       .  A
C327        C328   1.408       .  A
C328        H332   1.067       .  S
C333        H339   1.084       .  S
C333        C334   1.408       .  A
C333        C338   1.377       .  A
C334        C335   1.415       .  A
C335        H340   1.081       .  S
C335        C336   1.417       .  A
C336        H341   1.080       .  S
C336        C337   1.416       .  A
C337        C338   1.411       .  A
C338        H342   1.081       .  S
C343        H349   1.067       .  S
C343        C344   1.408       .  A
C343        C348   1.392       .  A
C344        C345   1.417       .  A
C345        H350   1.084       .  S
C345        C346   1.402       .  A
C346        H351   1.084       .  S
C346        C347   1.417       .  A
C347        C348   1.406       .  A
C348        H352   1.067       .  S
C353        H359   1.080       .  S
C353        C354   1.416       .  A
C353        C358   1.419       .  A
C354        C355   1.408       .  A
C355        H360   1.084       .  S
C355        C356   1.378       .  A
C356        H361   1.081       .  S
C356        C357   1.412       .  A
C357        C358   1.416       .  A
C358        H362   1.080       .  S
C363        H369   1.082       .  S
C363        C364   1.410       .  A
C363        C368   1.389       .  A
C364        C365   1.416       .  A
C365        H370   1.083       .  S
C365        C366   1.417       .  A
C366        H371   1.082       .  S
C366        C367   1.413       .  A
C367        C368   1.416       .  A
C368        H372   1.082       .  S
C373        H379   1.084       .  S
C373        C374   1.407       .  A
C373        C378   1.376       .  A
C374        C375   1.416       .  A
C375        H380   1.081       .  S
C375        C376   1.416       .  A
C376        H381   1.080       .  S
C376        C377   1.415       .  A
C377        C378   1.411       .  A
C378        H382   1.081       .  S
C383        H389   1.082       .  S
C383        C384   1.416       .  A
C383        C388   1.389       .  A
C384        C385   1.412       .  A
C385        H390   1.083       .  S
C385        C386   1.416       .  A
C386        H391   1.082       .  S
C386        C387   1.417       .  A
C387        C388   1.409       .  A
C388        H392   1.082       .  S
C393        H399   1.061       .  S
C393        C394   1.407       .  A
C393        C398   1.394       .  A
C394        C395   1.416       .  A
C395        H400   1.083       .  S
C395        C396   1.402       .  A
C396        H401   1.083       .  S
C396        C397   1.417       .  A
C397        C398   1.408       .  A
C398        H402   1.062       .  S
C403        H409   1.083       .  S
C403        C404   1.413       .  A
C403        C408   1.416       .  A
C404        C405   1.416       .  A
C405        H410   1.082       .  S
C405        C406   1.389       .  A
C406        H411   1.082       .  S
C406        C407   1.409       .  A
C407        C408   1.417       .  A
C408        H412   1.083       .  S
C413        H419   1.069       .  S
C413        C414   1.406       .  A
C413        C418   1.386       .  A
C414        C415   1.415       .  A
C415        H420   1.083       .  S
C415        C416   1.406       .  A
C416        H421   1.083       .  S
C416        C417   1.416       .  A
C417        C418   1.406       .  A
C418        H422   1.070       .  S
C423        H429   1.082       .  S
C423        C424   1.417       .  A
C423        C428   1.416       .  A
C424        C425   1.408       .  A
C425        H430   1.082       .  S
C425        C426   1.388       .  A
C426        H431   1.082       .  S
C426        C427   1.416       .  A
C427        C428   1.413       .  A
C428        H432   1.082       .  S
C433        H439   1.081       .  S
C433        C434   1.411       .  A
C433        C438   1.377       .  A
C434        C435   1.415       .  A
C435        H440   1.080       .  S
C435        C436   1.416       .  A
C436        H441   1.081       .  S
C436        C437   1.415       .  A
C437        C438   1.408       .  A
C438        H442   1.084       .  S
C443        H449   1.083       .  S
C443        C444   1.400       .  A
C443        C448   1.395       .  A
C444        C445   1.401       .  A
C445        H450   1.083       .  S
C445        C446   1.402       .  A
C446        H451   1.083       .  S
C446        C447   1.415       .  A
C447        C448   1.414       .  A
C448        H452   1.079       .  S
C453        H459   1.083       .  S
C453        C454   1.402       .  A
C453        C458   1.403       .  A
C454        C455   1.398       .  A
C455        H460   1.083       .  S
C455        C456   1.392       .  A
C456        H461   1.079       .  S
C456        C457   1.414       .  A
C457        C458   1.415       .  A
C458        H462   1.082       .  S
C463        H469   1.083       .  S
C463        C464   1.399       .  A
C463        C468   1.394       .  A
C464        C465   1.402       .  A
C465        H470   1.083       .  S
C465        C466   1.404       .  A
C466        H471   1.083       .  S
C466        C467   1.414       .  A
C467        C468   1.415       .  A
C468        H472   1.079       .  S
C473        H479   1.083       .  S
C473        C474   1.399       .  A
C473        C478   1.395       .  A
C474        C475   1.402       .  A
C475        H480   1.083       .  S
C475        C476   1.405       .  A
C476        H481   1.083       .  S
C476        C477   1.415       .  A
C477        C478   1.415       .  A
C478        H482   1.078       .  S
C483        H489   1.083       .  S
C483        C484   1.403       .  A
C483        C488   1.406       .  A
C484        C485   1.399       .  A
C485        H490   1.083       .  S
C485        C486   1.397       .  A
C486        H491   1.078       .  S
C486        C487   1.417       .  A
C487        C488   1.415       .  A
C488        H492   1.083       .  S
C493        H499   1.083       .  S
C493        C494   1.399       .  A
C493        C498   1.395       .  A
C494        C495   1.401       .  A
C495        H500   1.083       .  S
C495        C496   1.402       .  A
C496        H501   1.083       .  S
C496        C497   1.413       .  A
C497        C498   1.416       .  A
C498        H502   1.079       .  S
C503        H509   1.083       .  S
C503        C504   1.401       .  A
C503        C508   1.402       .  A
C504        C505   1.399       .  A
C505        H510   1.083       .  S
C505        C506   1.393       .  A
C506        H511   1.079       .  S
C506        C507   1.414       .  A
C507        C508   1.414       .  A
C508        H512   1.082       .  S
C513        H519   1.079       .  S
C513        C514   1.415       .  A
C513        C518   1.398       .  A
C514        C515   1.414       .  A
C515        H520   1.083       .  S
C515        C516   1.402       .  A
C516        H521   1.083       .  S
C516        C517   1.401       .  A
C517        C518   1.401       .  A
C518        H522   1.083       .  S
C523        N541   1.350       .  A
C523        C560   1.463       .  S
C523        C778   1.479       .  S
N524        N541   1.324       .  A
N524        N546   1.320       .  A
C525        N550   1.339       .  A
C525        C563   1.459       .  S
C525        H570   1.081       .  S
H526        C567   1.081       .  S
C527        N551   1.345       .  A
C527        C531   1.464       .  S
C527        H556   1.081       .  S
Co528       N829   2.097       .  S
Co528       N544   2.094       .  S
Co528     Cl1877   2.455       .  S
N529        C567   1.341       .  A
N529        N536   1.321       .  A
N529      Co1574   2.090   1_565  S
Co530      N1573   2.090   1_445  S
Co530       N533   2.079   1_545  S
Co530      N1072   2.078   1_455  S
C531        N569   1.348       .  A
C531        C765   1.475       .  S
N532        N539   1.320       .  A
N532        N562   1.327       .  A
N532       Co565   2.092   1_565  S
N533        N551   1.320       .  A
N533        N569   1.322       .  A
N534        C563   1.352       .  A
N534        N544   1.327       .  A
H535        C560   1.082       .  S
N536        N557   1.328       .  A
N537        N555   1.321       .  A
N537        N542   1.323       .  A
C538        N542   1.350       .  A
C538        C566   1.463       .  S
C538        C705   1.477       .  S
N539        C554   1.338       .  A
N539      Co1083   2.082   1_465  S
C540        N568   1.345       .  A
C540        C543   1.464       .  S
C540        H574   1.082       .  S
C543        N564   1.350       .  A
C543        C725   1.478       .  S
N544        N550   1.320       .  A
N545        C571   1.339       .  A
N545        N547   1.320       .  A
N545      Co1605   2.085   1_455  S
N546        C560   1.344       .  A
N547        N575   1.328       .  A
H548        C571   1.082       .  S
H549        C566   1.081       .  S
N550      Co1052   2.078       .  S
N551       Co826   2.093   1_565  S
N552        N564   1.323       .  A
N552        N568   1.320       .  A
N552       Co561   2.083       .  S
C553        N557   1.353       .  A
C553        C567   1.462       .  S
C553        C745   1.483       .  S
C554        C573   1.460       .  S
C554        H558   1.082       .  S
N555        C566   1.344       .  A
C559        N575   1.353       .  A
C559        C571   1.460       .  S
C559        C735   1.479       .  S
Co561      N1061   2.082       .  S
Co561      N1589   2.085       .  S
Co561     Cl1616   2.449       .  S
N562        C573   1.352       .  A
C563        C755   1.476       .  S
Co565       N812   2.094   1_544  S
N568       Co789   2.096   1_554  S
Cl572     Co1833   2.455   1_554  S
Cl572     Co1605   2.449       .  S
C573        C715   1.475       .  S
C576        C675   1.565       .  S
C576        C685   1.564       .  S
C576        C695   1.559       .  S
C576        C708   1.546       .  S
C577        C655   1.573       .  S
C577        C665   1.576       .  S
C577        C698   1.558       .  S
C577        C768   1.544       .  S
C578        C635   1.558       .  S
C578        C645   1.576       .  S
C578        C658   1.575       .  S
C578        C718   1.545       .  S
C579        C625   1.568       .  S
C579        C638   1.559       .  S
C579        C678   1.568       .  S
C579        C738   1.551       .  S
C580        C605   1.575       .  S
C580        C615   1.562       .  S
C580        C688   1.576       .  S
C580        C758   1.546       .  S
C581        C595   1.560       .  S
C581        C608   1.574       .  S
C581        C628   1.577       .  S
C581        C728   1.547       .  S
C582        C585   1.565       .  S
C582        C598   1.561       .  S
C582        C648   1.566       .  S
C582        C775   1.548       .  S
C583        C588   1.568       .  S
C583        C618   1.564       .  S
C583        C668   1.566       .  S
C583        C748   1.554       .  S
C584        H590   1.069       .  S
C584        C585   1.406       .  A
C584        C589   1.388       .  A
C585        C586   1.415       .  A
C586        H591   1.083       .  S
C586        C587   1.406       .  A
C587        H592   1.083       .  S
C587        C588   1.415       .  A
C588        C589   1.408       .  A
C589        H593   1.067       .  S
C594        H600   1.084       .  S
C594        C595   1.408       .  A
C594        C599   1.377       .  A
C595        C596   1.415       .  A
C596        H601   1.081       .  S
C596        C597   1.417       .  A
C597        H602   1.080       .  S
C597        C598   1.416       .  A
C598        C599   1.411       .  A
C599        H603   1.081       .  S
C604        H610   1.067       .  S
C604        C605   1.408       .  A
C604        C609   1.392       .  A
C605        C606   1.417       .  A
C606        H611   1.084       .  S
C606        C607   1.402       .  A
C607        H612   1.084       .  S
C607        C608   1.417       .  A
C608        C609   1.406       .  A
C609        H613   1.067       .  S
C614        H620   1.080       .  S
C614        C615   1.416       .  A
C614        C619   1.419       .  A
C615        C616   1.408       .  A
C616        H621   1.084       .  S
C616        C617   1.378       .  A
C617        H622   1.081       .  S
C617        C618   1.412       .  A
C618        C619   1.416       .  A
C619        H623   1.080       .  S
C624        H630   1.082       .  S
C624        C625   1.410       .  A
C624        C629   1.389       .  A
C625        C626   1.416       .  A
C626        H631   1.083       .  S
C626        C627   1.417       .  A
C627        H632   1.082       .  S
C627        C628   1.413       .  A
C628        C629   1.416       .  A
C629        H633   1.082       .  S
C634        H640   1.084       .  S
C634        C635   1.407       .  A
C634        C639   1.376       .  A
C635        C636   1.416       .  A
C636        H641   1.080       .  S
C636        C637   1.416       .  A
C637        H642   1.080       .  S
C637        C638   1.415       .  A
C638        C639   1.411       .  A
C639        H643   1.081       .  S
C644        H650   1.082       .  S
C644        C645   1.416       .  A
C644        C649   1.389       .  A
C645        C646   1.412       .  A
C646        H651   1.083       .  S
C646        C647   1.416       .  A
C647        H652   1.082       .  S
C647        C648   1.417       .  A
C648        C649   1.409       .  A
C649        H653   1.082       .  S
C654        H660   1.060       .  S
C654        C655   1.407       .  A
C654        C659   1.394       .  A
C655        C656   1.416       .  A
C656        H661   1.082       .  S
C656        C657   1.402       .  A
C657        H662   1.083       .  S
C657        C658   1.417       .  A
C658        C659   1.408       .  A
C659        H663   1.061       .  S
C664        H670   1.083       .  S
C664        C665   1.413       .  A
C664        C669   1.416       .  A
C665        C666   1.416       .  A
C666        H671   1.082       .  S
C666        C667   1.389       .  A
C667        H672   1.082       .  S
C667        C668   1.409       .  A
C668        C669   1.417       .  A
C669        H673   1.083       .  S
C674        H680   1.070       .  S
C674        C675   1.406       .  A
C674        C679   1.386       .  A
C675        C676   1.415       .  A
C676        H681   1.083       .  S
C676        C677   1.406       .  A
C677        H682   1.083       .  S
C677        C678   1.416       .  A
C678        C679   1.406       .  A
C679        H683   1.070       .  S
C684        H690   1.082       .  S
C684        C685   1.417       .  A
C684        C689   1.416       .  A
C685        C686   1.408       .  A
C686        H691   1.082       .  S
C686        C687   1.388       .  A
C687        H692   1.082       .  S
C687        C688   1.416       .  A
C688        C689   1.413       .  A
C689        H693   1.082       .  S
C694        H700   1.081       .  S
C694        C695   1.411       .  A
C694        C699   1.377       .  A
C695        C696   1.416       .  A
C696        H701   1.080       .  S
C696        C697   1.416       .  A
C697        H702   1.081       .  S
C697        C698   1.415       .  A
C698        C699   1.408       .  A
C699        H703   1.084       .  S
C704        H710   1.083       .  S
C704        C705   1.400       .  A
C704        C709   1.395       .  A
C705        C706   1.401       .  A
C706        H711   1.083       .  S
C706        C707   1.402       .  A
C707        H712   1.083       .  S
C707        C708   1.415       .  A
C708        C709   1.414       .  A
C709        H713   1.079       .  S
C714        H720   1.083       .  S
C714        C715   1.402       .  A
C714        C719   1.403       .  A
C715        C716   1.398       .  A
C716        H721   1.083       .  S
C716        C717   1.392       .  A
C717        H722   1.079       .  S
C717        C718   1.414       .  A
C718        C719   1.415       .  A
C719        H723   1.082       .  S
C724        H730   1.083       .  S
C724        C725   1.399       .  A
C724        C729   1.394       .  A
C725        C726   1.402       .  A
C726        H731   1.083       .  S
C726        C727   1.404       .  A
C727        H732   1.083       .  S
C727        C728   1.414       .  A
C728        C729   1.415       .  A
C729        H733   1.079       .  S
C734        H740   1.083       .  S
C734        C735   1.399       .  A
C734        C739   1.395       .  A
C735        C736   1.402       .  A
C736        H741   1.083       .  S
C736        C737   1.405       .  A
C737        H742   1.083       .  S
C737        C738   1.415       .  A
C738        C739   1.415       .  A
C739        H743   1.078       .  S
C744        H750   1.083       .  S
C744        C745   1.403       .  A
C744        C749   1.406       .  A
C745        C746   1.399       .  A
C746        H751   1.083       .  S
C746        C747   1.397       .  A
C747        H752   1.078       .  S
C747        C748   1.417       .  A
C748        C749   1.415       .  A
C749        H753   1.083       .  S
C754        H760   1.083       .  S
C754        C755   1.399       .  A
C754        C759   1.395       .  A
C755        C756   1.401       .  A
C756        H761   1.083       .  S
C756        C757   1.402       .  A
C757        H762   1.083       .  S
C757        C758   1.413       .  A
C758        C759   1.416       .  A
C759        H763   1.079       .  S
C764        H770   1.083       .  S
C764        C765   1.401       .  A
C764        C769   1.402       .  A
C765        C766   1.400       .  A
C766        H771   1.083       .  S
C766        C767   1.393       .  A
C767        H772   1.079       .  S
C767        C768   1.414       .  A
C768        C769   1.414       .  A
C769        H773   1.082       .  S
C774        H780   1.079       .  S
C774        C775   1.415       .  A
C774        C779   1.398       .  A
C775        C776   1.414       .  A
C776        H781   1.083       .  S
C776        C777   1.402       .  A
C777        H782   1.083       .  S
C777        C778   1.401       .  A
C778        C779   1.401       .  A
C779        H783   1.083       .  S
C784        N802   1.350       .  A
C784        C821   1.463       .  S
C784       C1039   1.479       .  S
N785        N802   1.324       .  A
N785        N807   1.320       .  A
C786        N811   1.339       .  A
C786        C824   1.459       .  S
C786        H831   1.081       .  S
H787        C828   1.081       .  S
C788        N812   1.345       .  A
C788        C792   1.464       .  S
C788        H817   1.081       .  S
Co789       N805   2.095       .  S
Co789     Cl1616   2.455   1_556  S
N790        C828   1.341       .  A
N790        N797   1.321       .  A
N790      Co1835   2.090   1_565  S
Co791      N1834   2.090   1_445  S
Co791       N794   2.079   1_545  S
Co791      N1333   2.078   1_455  S
C792        N830   1.348       .  A
C792       C1026   1.475       .  S
N793        N800   1.320       .  A
N793        N823   1.327       .  A
N793       Co826   2.092   1_565  S
N794        N812   1.320       .  A
N794        N830   1.322       .  A
N795        C824   1.352       .  A
N795        N805   1.327       .  A
H796        C821   1.082       .  S
N797        N818   1.328       .  A
N798        N816   1.321       .  A
N798        N803   1.324       .  A
C799        N803   1.350       .  A
C799        C827   1.463       .  S
C799        C966   1.477       .  S
N800        C815   1.338       .  A
N800      Co1344   2.082   1_465  S
C801        N829   1.345       .  A
C801        C804   1.464       .  S
C801        H835   1.082       .  S
C804        N825   1.350       .  A
C804        C986   1.478       .  S
N805        N811   1.320       .  A
N806        C832   1.340       .  A
N806        N808   1.320       .  A
N806      Co1866   2.085   1_455  S
N807        C821   1.345       .  A
N808        N836   1.328       .  A
H809        C832   1.082       .  S
H810        C827   1.081       .  S
N811      Co1313   2.078       .  S
N813        N825   1.323       .  A
N813        N829   1.320       .  A
N813       Co822   2.083       .  S
C814        N818   1.353       .  A
C814        C828   1.462       .  S
C814       C1006   1.482       .  S
C815        C834   1.460       .  S
C815        H819   1.082       .  S
N816        C827   1.344       .  A
C820        N836   1.353       .  A
C820        C832   1.460       .  S
C820        C996   1.479       .  S
Co822      N1322   2.082       .  S
Co822      N1850   2.085       .  S
Co822     Cl1877   2.449       .  S
N823        C834   1.352       .  A
C824       C1016   1.476       .  S
Cl833     Co1572   2.455       .  S
Cl833     Co1866   2.449       .  S
C834        C976   1.476       .  S
C837        C936   1.565       .  S
C837        C946   1.564       .  S
C837        C956   1.559       .  S
C837        C969   1.546       .  S
C838        C916   1.573       .  S
C838        C926   1.576       .  S
C838        C959   1.558       .  S
C838       C1029   1.544       .  S
C839        C896   1.558       .  S
C839        C906   1.576       .  S
C839        C919   1.576       .  S
C839        C979   1.546       .  S
C840        C886   1.569       .  S
C840        C899   1.559       .  S
C840        C939   1.568       .  S
C840        C999   1.551       .  S
C841        C866   1.575       .  S
C841        C876   1.562       .  S
C841        C949   1.576       .  S
C841       C1019   1.547       .  S
C842        C856   1.560       .  S
C842        C869   1.574       .  S
C842        C889   1.577       .  S
C842        C989   1.547       .  S
C843        C846   1.565       .  S
C843        C859   1.561       .  S
C843        C909   1.566       .  S
C843       C1036   1.548       .  S
C844        C849   1.568       .  S
C844        C879   1.564       .  S
C844        C929   1.566       .  S
C844       C1009   1.554       .  S
C845        H851   1.069       .  S
C845        C846   1.406       .  A
C845        C850   1.388       .  A
C846        C847   1.415       .  A
C847        H852   1.083       .  S
C847        C848   1.406       .  A
C848        H853   1.083       .  S
C848        C849   1.415       .  A
C849        C850   1.408       .  A
C850        H854   1.067       .  S
C855        H861   1.084       .  S
C855        C856   1.408       .  A
C855        C860   1.377       .  A
C856        C857   1.415       .  A
C857        H862   1.081       .  S
C857        C858   1.417       .  A
C858        H863   1.080       .  S
C858        C859   1.416       .  A
C859        C860   1.411       .  A
C860        H864   1.081       .  S
C865        H871   1.067       .  S
C865        C866   1.408       .  A
C865        C870   1.392       .  A
C866        C867   1.417       .  A
C867        H872   1.084       .  S
C867        C868   1.402       .  A
C868        H873   1.084       .  S
C868        C869   1.417       .  A
C869        C870   1.406       .  A
C870        H874   1.067       .  S
C875        H881   1.080       .  S
C875        C876   1.416       .  A
C875        C880   1.419       .  A
C876        C877   1.408       .  A
C877        H882   1.084       .  S
C877        C878   1.378       .  A
C878        H883   1.081       .  S
C878        C879   1.412       .  A
C879        C880   1.416       .  A
C880        H884   1.080       .  S
C885        H891   1.082       .  S
C885        C886   1.410       .  A
C885        C890   1.389       .  A
C886        C887   1.416       .  A
C887        H892   1.083       .  S
C887        C888   1.417       .  A
C888        H893   1.082       .  S
C888        C889   1.413       .  A
C889        C890   1.416       .  A
C890        H894   1.082       .  S
C895        H901   1.084       .  S
C895        C896   1.407       .  A
C895        C900   1.376       .  A
C896        C897   1.416       .  A
C897        H902   1.081       .  S
C897        C898   1.416       .  A
C898        H903   1.080       .  S
C898        C899   1.415       .  A
C899        C900   1.411       .  A
C900        H904   1.081       .  S
C905        H911   1.082       .  S
C905        C906   1.416       .  A
C905        C910   1.389       .  A
C906        C907   1.412       .  A
C907        H912   1.083       .  S
C907        C908   1.416       .  A
C908        H913   1.082       .  S
C908        C909   1.417       .  A
C909        C910   1.409       .  A
C910        H914   1.082       .  S
C915        H921   1.061       .  S
C915        C916   1.407       .  A
C915        C920   1.394       .  A
C916        C917   1.416       .  A
C917        H922   1.083       .  S
C917        C918   1.402       .  A
C918        H923   1.083       .  S
C918        C919   1.417       .  A
C919        C920   1.408       .  A
C920        H924   1.062       .  S
C925        H931   1.083       .  S
C925        C926   1.413       .  A
C925        C930   1.416       .  A
C926        C927   1.416       .  A
C927        H932   1.082       .  S
C927        C928   1.389       .  A
C928        H933   1.082       .  S
C928        C929   1.409       .  A
C929        C930   1.417       .  A
C930        H934   1.083       .  S
C935        H941   1.069       .  S
C935        C936   1.406       .  A
C935        C940   1.386       .  A
C936        C937   1.415       .  A
C937        H942   1.083       .  S
C937        C938   1.406       .  A
C938        H943   1.083       .  S
C938        C939   1.416       .  A
C939        C940   1.406       .  A
C940        H944   1.070       .  S
C945        H951   1.082       .  S
C945        C946   1.417       .  A
C945        C950   1.416       .  A
C946        C947   1.408       .  A
C947        H952   1.082       .  S
C947        C948   1.388       .  A
C948        H953   1.082       .  S
C948        C949   1.416       .  A
C949        C950   1.413       .  A
C950        H954   1.082       .  S
C955        H961   1.081       .  S
C955        C956   1.411       .  A
C955        C960   1.377       .  A
C956        C957   1.415       .  A
C957        H962   1.080       .  S
C957        C958   1.416       .  A
C958        H963   1.081       .  S
C958        C959   1.415       .  A
C959        C960   1.408       .  A
C960        H964   1.084       .  S
C965        H971   1.083       .  S
C965        C966   1.400       .  A
C965        C970   1.395       .  A
C966        C967   1.401       .  A
C967        H972   1.083       .  S
C967        C968   1.402       .  A
C968        H973   1.083       .  S
C968        C969   1.415       .  A
C969        C970   1.414       .  A
C970        H974   1.079       .  S
C975        H981   1.083       .  S
C975        C976   1.402       .  A
C975        C980   1.403       .  A
C976        C977   1.398       .  A
C977        H982   1.083       .  S
C977        C978   1.392       .  A
C978        H983   1.079       .  S
C978        C979   1.414       .  A
C979        C980   1.415       .  A
C980        H984   1.082       .  S
C985        H991   1.083       .  S
C985        C986   1.399       .  A
C985        C990   1.394       .  A
C986        C987   1.402       .  A
C987        H992   1.083       .  S
C987        C988   1.404       .  A
C988        H993   1.083       .  S
C988        C989   1.414       .  A
C989        C990   1.415       .  A
C990        H994   1.079       .  S
C995       H1001   1.083       .  S
C995        C996   1.399       .  A
C995       C1000   1.395       .  A
C996        C997   1.402       .  A
C997       H1002   1.083       .  S
C997        C998   1.405       .  A
C998       H1003   1.083       .  S
C998        C999   1.415       .  A
C999       C1000   1.415       .  A
C1000      H1004   1.078       .  S
C1005      H1011   1.083       .  S
C1005      C1006   1.403       .  A
C1005      C1010   1.406       .  A
C1006      C1007   1.399       .  A
C1007      H1012   1.083       .  S
C1007      C1008   1.397       .  A
C1008      H1013   1.078       .  S
C1008      C1009   1.417       .  A
C1009      C1010   1.415       .  A
C1010      H1014   1.083       .  S
C1015      H1021   1.083       .  S
C1015      C1016   1.399       .  A
C1015      C1020   1.395       .  A
C1016      C1017   1.401       .  A
C1017      H1022   1.083       .  S
C1017      C1018   1.402       .  A
C1018      H1023   1.083       .  S
C1018      C1019   1.413       .  A
C1019      C1020   1.416       .  A
C1020      H1024   1.079       .  S
C1025      H1031   1.083       .  S
C1025      C1026   1.401       .  A
C1025      C1030   1.402       .  A
C1026      C1027   1.399       .  A
C1027      H1032   1.083       .  S
C1027      C1028   1.393       .  A
C1028      H1033   1.079       .  S
C1028      C1029   1.414       .  A
C1029      C1030   1.414       .  A
C1030      H1034   1.082       .  S
C1035      H1041   1.079       .  S
C1035      C1036   1.415       .  A
C1035      C1040   1.398       .  A
C1036      C1037   1.414       .  A
C1037      H1042   1.083       .  S
C1037      C1038   1.402       .  A
C1038      H1043   1.083       .  S
C1038      C1039   1.401       .  A
C1039      C1040   1.401       .  A
C1040      H1044   1.083       .  S
C1045      N1063   1.350       .  A
C1045      C1082   1.463       .  S
C1045      C1300   1.479       .  S
N1046      N1063   1.324       .  A
N1046      N1068   1.320       .  A
N1046     Co1605   2.085       .  S
C1047      N1072   1.339       .  A
C1047      C1085   1.459       .  S
C1047      H1092   1.081       .  S
H1048      C1089   1.081       .  S
C1049      N1073   1.345       .  A
C1049      C1053   1.464       .  S
C1049      H1078   1.081       .  S
Co1050     N1851   2.095   1_545  S
Co1050     N1580   2.099   1_545  S
Co1050     N1351   2.097       .  S
Co1050     N1066   2.094       .  S
N1051      C1089   1.341       .  A
N1051      N1058   1.321       .  A
Co1052     N1055   2.079       .  S
Co1052     N1581   2.088       .  S
Co1052    Cl1877   2.449       .  S
C1053      N1091   1.348       .  A
C1053      C1287   1.475       .  S
N1054      N1061   1.320       .  A
N1054      N1084   1.327       .  A
N1054     Co1087   2.092       .  S
N1055      N1073   1.320       .  A
N1055      N1091   1.322       .  A
N1056      C1085   1.352       .  A
N1056      N1066   1.327       .  A
H1057      C1082   1.082       .  S
N1058      N1079   1.328       .  A
N1058     Co1572   2.099       .  S
N1059      N1077   1.321       .  A
N1059      N1064   1.323       .  A
N1059     Co1574   2.088       .  S
C1060      N1064   1.350       .  A
C1060      C1088   1.463       .  S
C1060      C1227   1.477       .  S
N1061      C1076   1.338       .  A
C1062      N1090   1.345       .  A
C1062      C1065   1.464       .  S
C1062      H1096   1.082       .  S
C1065      N1086   1.350       .  A
C1065      C1247   1.478       .  S
N1066      N1072   1.320       .  A
N1067      C1093   1.339       .  A
N1067      N1069   1.320       .  A
N1068      C1082   1.344       .  A
N1068     Co1833   2.095   1_554  S
N1069      N1097   1.328       .  A
N1069     Co1609   2.098       .  S
H1070      C1093   1.082       .  S
H1071      C1088   1.081       .  S
N1073     Co1348   2.093       .  S
N1074      N1086   1.323       .  A
N1074      N1090   1.320       .  A
N1074     Co1083   2.083       .  S
C1075      N1079   1.353       .  A
C1075      C1089   1.462       .  S
C1075      C1267   1.483       .  S
C1076      C1095   1.460       .  S
C1076      H1080   1.082       .  S
N1077      C1088   1.344       .  A
N1077     Co1870   2.091       .  S
C1081      N1097   1.353       .  A
C1081      C1093   1.460       .  S
C1081      C1257   1.479       .  S
Co1083     N1568   2.085   1_545  S
N1084      C1095   1.352       .  A
C1085      C1277   1.476       .  S
Co1087     N1591   2.098       .  S
Co1087     N1334   2.094   1_554  S
Co1087     N1860   2.091   1_554  S
Co1087    Cl1616   2.459       .  S
N1090     Co1311   2.096   1_554  S
Cl1094    Co1835   2.449   1_554  S
Cl1094    Co1609   2.459       .  S
C1095      C1237   1.475       .  S
C1098      C1197   1.565       .  S
C1098      C1207   1.564       .  S
C1098      C1217   1.559       .  S
C1098      C1230   1.546       .  S
C1099      C1177   1.573       .  S
C1099      C1187   1.576       .  S
C1099      C1220   1.558       .  S
C1099      C1290   1.544       .  S
C1100      C1157   1.558       .  S
C1100      C1167   1.576       .  S
C1100      C1180   1.575       .  S
C1100      C1240   1.545       .  S
C1101      C1147   1.568       .  S
C1101      C1160   1.559       .  S
C1101      C1200   1.568       .  S
C1101      C1260   1.551       .  S
C1102      C1127   1.575       .  S
C1102      C1137   1.562       .  S
C1102      C1210   1.576       .  S
C1102      C1280   1.546       .  S
C1103      C1117   1.560       .  S
C1103      C1130   1.574       .  S
C1103      C1150   1.577       .  S
C1103      C1250   1.547       .  S
C1104      C1107   1.565       .  S
C1104      C1120   1.561       .  S
C1104      C1170   1.566       .  S
C1104      C1297   1.548       .  S
C1105      C1110   1.568       .  S
C1105      C1140   1.564       .  S
C1105      C1190   1.566       .  S
C1105      C1270   1.554       .  S
C1106      H1112   1.069       .  S
C1106      C1107   1.406       .  A
C1106      C1111   1.388       .  A
C1107      C1108   1.415       .  A
C1108      H1113   1.083       .  S
C1108      C1109   1.406       .  A
C1109      H1114   1.083       .  S
C1109      C1110   1.415       .  A
C1110      C1111   1.408       .  A
C1111      H1115   1.067       .  S
C1116      H1122   1.084       .  S
C1116      C1117   1.408       .  A
C1116      C1121   1.377       .  A
C1117      C1118   1.415       .  A
C1118      H1123   1.081       .  S
C1118      C1119   1.417       .  A
C1119      H1124   1.080       .  S
C1119      C1120   1.416       .  A
C1120      C1121   1.411       .  A
C1121      H1125   1.081       .  S
C1126      H1132   1.067       .  S
C1126      C1127   1.408       .  A
C1126      C1131   1.392       .  A
C1127      C1128   1.417       .  A
C1128      H1133   1.084       .  S
C1128      C1129   1.402       .  A
C1129      H1134   1.084       .  S
C1129      C1130   1.417       .  A
C1130      C1131   1.406       .  A
C1131      H1135   1.067       .  S
C1136      H1142   1.080       .  S
C1136      C1137   1.416       .  A
C1136      C1141   1.419       .  A
C1137      C1138   1.408       .  A
C1138      H1143   1.084       .  S
C1138      C1139   1.378       .  A
C1139      H1144   1.081       .  S
C1139      C1140   1.412       .  A
C1140      C1141   1.416       .  A
C1141      H1145   1.080       .  S
C1146      H1152   1.082       .  S
C1146      C1147   1.410       .  A
C1146      C1151   1.389       .  A
C1147      C1148   1.416       .  A
C1148      H1153   1.083       .  S
C1148      C1149   1.417       .  A
C1149      H1154   1.082       .  S
C1149      C1150   1.413       .  A
C1150      C1151   1.416       .  A
C1151      H1155   1.082       .  S
C1156      H1162   1.084       .  S
C1156      C1157   1.407       .  A
C1156      C1161   1.376       .  A
C1157      C1158   1.416       .  A
C1158      H1163   1.080       .  S
C1158      C1159   1.416       .  A
C1159      H1164   1.080       .  S
C1159      C1160   1.415       .  A
C1160      C1161   1.411       .  A
C1161      H1165   1.081       .  S
C1166      H1172   1.082       .  S
C1166      C1167   1.416       .  A
C1166      C1171   1.389       .  A
C1167      C1168   1.412       .  A
C1168      H1173   1.083       .  S
C1168      C1169   1.416       .  A
C1169      H1174   1.082       .  S
C1169      C1170   1.417       .  A
C1170      C1171   1.409       .  A
C1171      H1175   1.082       .  S
C1176      H1182   1.060       .  S
C1176      C1177   1.407       .  A
C1176      C1181   1.394       .  A
C1177      C1178   1.416       .  A
C1178      H1183   1.082       .  S
C1178      C1179   1.402       .  A
C1179      H1184   1.083       .  S
C1179      C1180   1.417       .  A
C1180      C1181   1.408       .  A
C1181      H1185   1.061       .  S
C1186      H1192   1.083       .  S
C1186      C1187   1.413       .  A
C1186      C1191   1.416       .  A
C1187      C1188   1.416       .  A
C1188      H1193   1.082       .  S
C1188      C1189   1.389       .  A
C1189      H1194   1.082       .  S
C1189      C1190   1.409       .  A
C1190      C1191   1.417       .  A
C1191      H1195   1.083       .  S
C1196      H1202   1.070       .  S
C1196      C1197   1.406       .  A
C1196      C1201   1.386       .  A
C1197      C1198   1.415       .  A
C1198      H1203   1.083       .  S
C1198      C1199   1.406       .  A
C1199      H1204   1.083       .  S
C1199      C1200   1.416       .  A
C1200      C1201   1.406       .  A
C1201      H1205   1.070       .  S
C1206      H1212   1.082       .  S
C1206      C1207   1.417       .  A
C1206      C1211   1.416       .  A
C1207      C1208   1.408       .  A
C1208      H1213   1.082       .  S
C1208      C1209   1.388       .  A
C1209      H1214   1.082       .  S
C1209      C1210   1.416       .  A
C1210      C1211   1.413       .  A
C1211      H1215   1.082       .  S
C1216      H1222   1.081       .  S
C1216      C1217   1.411       .  A
C1216      C1221   1.377       .  A
C1217      C1218   1.416       .  A
C1218      H1223   1.080       .  S
C1218      C1219   1.416       .  A
C1219      H1224   1.081       .  S
C1219      C1220   1.415       .  A
C1220      C1221   1.408       .  A
C1221      H1225   1.084       .  S
C1226      H1232   1.083       .  S
C1226      C1227   1.400       .  A
C1226      C1231   1.395       .  A
C1227      C1228   1.401       .  A
C1228      H1233   1.083       .  S
C1228      C1229   1.402       .  A
C1229      H1234   1.083       .  S
C1229      C1230   1.415       .  A
C1230      C1231   1.414       .  A
C1231      H1235   1.079       .  S
C1236      H1242   1.083       .  S
C1236      C1237   1.402       .  A
C1236      C1241   1.403       .  A
C1237      C1238   1.398       .  A
C1238      H1243   1.083       .  S
C1238      C1239   1.392       .  A
C1239      H1244   1.079       .  S
C1239      C1240   1.414       .  A
C1240      C1241   1.415       .  A
C1241      H1245   1.082       .  S
C1246      H1252   1.083       .  S
C1246      C1247   1.399       .  A
C1246      C1251   1.394       .  A
C1247      C1248   1.402       .  A
C1248      H1253   1.083       .  S
C1248      C1249   1.404       .  A
C1249      H1254   1.083       .  S
C1249      C1250   1.414       .  A
C1250      C1251   1.415       .  A
C1251      H1255   1.079       .  S
C1256      H1262   1.083       .  S
C1256      C1257   1.399       .  A
C1256      C1261   1.395       .  A
C1257      C1258   1.402       .  A
C1258      H1263   1.083       .  S
C1258      C1259   1.405       .  A
C1259      H1264   1.083       .  S
C1259      C1260   1.415       .  A
C1260      C1261   1.415       .  A
C1261      H1265   1.078       .  S
C1266      H1272   1.083       .  S
C1266      C1267   1.403       .  A
C1266      C1271   1.406       .  A
C1267      C1268   1.399       .  A
C1268      H1273   1.083       .  S
C1268      C1269   1.397       .  A
C1269      H1274   1.078       .  S
C1269      C1270   1.417       .  A
C1270      C1271   1.415       .  A
C1271      H1275   1.083       .  S
C1276      H1282   1.083       .  S
C1276      C1277   1.399       .  A
C1276      C1281   1.395       .  A
C1277      C1278   1.401       .  A
C1278      H1283   1.083       .  S
C1278      C1279   1.402       .  A
C1279      H1284   1.083       .  S
C1279      C1280   1.413       .  A
C1280      C1281   1.416       .  A
C1281      H1285   1.079       .  S
C1286      H1292   1.083       .  S
C1286      C1287   1.401       .  A
C1286      C1291   1.402       .  A
C1287      C1288   1.400       .  A
C1288      H1293   1.083       .  S
C1288      C1289   1.393       .  A
C1289      H1294   1.079       .  S
C1289      C1290   1.414       .  A
C1290      C1291   1.414       .  A
C1291      H1295   1.082       .  S
C1296      H1302   1.079       .  S
C1296      C1297   1.415       .  A
C1296      C1301   1.398       .  A
C1297      C1298   1.414       .  A
C1298      H1303   1.083       .  S
C1298      C1299   1.402       .  A
C1299      H1304   1.083       .  S
C1299      C1300   1.401       .  A
C1300      C1301   1.401       .  A
C1301      H1305   1.083       .  S
C1306      N1324   1.350       .  A
C1306      C1343   1.463       .  S
C1306      C1561   1.479       .  S
N1307      N1324   1.324       .  A
N1307      N1329   1.320       .  A
N1307     Co1866   2.085       .  S
C1308      N1333   1.339       .  A
C1308      C1346   1.459       .  S
C1308      H1353   1.081       .  S
H1309      C1350   1.081       .  S
C1310      N1334   1.345       .  A
C1310      C1314   1.464       .  S
C1310      H1339   1.081       .  S
Co1311     N1590   2.095   1_546  S
Co1311     N1841   2.099   1_545  S
Co1311     N1327   2.095       .  S
N1312      C1350   1.341       .  A
N1312      N1319   1.321       .  A
Co1313     N1316   2.079       .  S
Co1313     N1842   2.089       .  S
Co1313    Cl1616   2.449   1_556  S
C1314      N1352   1.348       .  A
C1314      C1548   1.475       .  S
N1315      N1322   1.320       .  A
N1315      N1345   1.327       .  A
N1315     Co1348   2.092       .  S
N1316      N1334   1.320       .  A
N1316      N1352   1.322       .  A
N1317      C1346   1.352       .  A
N1317      N1327   1.327       .  A
H1318      C1343   1.082       .  S
N1319      N1340   1.328       .  A
N1319     Co1833   2.099       .  S
N1320      N1338   1.321       .  A
N1320      N1325   1.324       .  A
N1320     Co1835   2.089       .  S
C1321      N1325   1.350       .  A
C1321      C1349   1.463       .  S
C1321      C1488   1.477       .  S
N1322      C1337   1.338       .  A
C1323      N1351   1.345       .  A
C1323      C1326   1.464       .  S
C1323      H1357   1.082       .  S
C1326      N1347   1.350       .  A
C1326      C1508   1.478       .  S
N1327      N1333   1.320       .  A
N1328      C1354   1.340       .  A
N1328      N1330   1.320       .  A
N1329      C1343   1.345       .  A
N1329     Co1572   2.095       .  S
N1330      N1358   1.328       .  A
N1330     Co1870   2.097       .  S
H1331      C1354   1.082       .  S
H1332      C1349   1.081       .  S
N1335      N1347   1.323       .  A
N1335      N1351   1.320       .  A
N1335     Co1344   2.083       .  S
C1336      N1340   1.353       .  A
C1336      C1350   1.462       .  S
C1336      C1528   1.482       .  S
C1337      C1356   1.460       .  S
C1337      H1341   1.082       .  S
N1338      C1349   1.344       .  A
N1338     Co1609   2.091   1_556  S
C1342      N1358   1.353       .  A
C1342      C1354   1.460       .  S
C1342      C1518   1.479       .  S
Co1344     N1829   2.085   1_545  S
N1345      C1356   1.352       .  A
C1346      C1538   1.476       .  S
Co1348     N1852   2.097       .  S
Co1348     N1599   2.091       .  S
Co1348    Cl1877   2.459       .  S
Cl1355    Co1574   2.449       .  S
Cl1355    Co1870   2.459       .  S
C1356      C1498   1.476       .  S
C1359      C1458   1.565       .  S
C1359      C1468   1.564       .  S
C1359      C1478   1.559       .  S
C1359      C1491   1.546       .  S
C1360      C1438   1.573       .  S
C1360      C1448   1.576       .  S
C1360      C1481   1.558       .  S
C1360      C1551   1.544       .  S
C1361      C1418   1.558       .  S
C1361      C1428   1.576       .  S
C1361      C1441   1.576       .  S
C1361      C1501   1.546       .  S
C1362      C1408   1.569       .  S
C1362      C1421   1.559       .  S
C1362      C1461   1.568       .  S
C1362      C1521   1.551       .  S
C1363      C1388   1.575       .  S
C1363      C1398   1.562       .  S
C1363      C1471   1.576       .  S
C1363      C1541   1.547       .  S
C1364      C1378   1.560       .  S
C1364      C1391   1.574       .  S
C1364      C1411   1.577       .  S
C1364      C1511   1.547       .  S
C1365      C1368   1.565       .  S
C1365      C1381   1.561       .  S
C1365      C1431   1.566       .  S
C1365      C1558   1.548       .  S
C1366      C1371   1.568       .  S
C1366      C1401   1.564       .  S
C1366      C1451   1.566       .  S
C1366      C1531   1.554       .  S
C1367      H1373   1.069       .  S
C1367      C1368   1.406       .  A
C1367      C1372   1.388       .  A
C1368      C1369   1.415       .  A
C1369      H1374   1.083       .  S
C1369      C1370   1.406       .  A
C1370      H1375   1.083       .  S
C1370      C1371   1.415       .  A
C1371      C1372   1.408       .  A
C1372      H1376   1.067       .  S
C1377      H1383   1.084       .  S
C1377      C1378   1.408       .  A
C1377      C1382   1.377       .  A
C1378      C1379   1.415       .  A
C1379      H1384   1.081       .  S
C1379      C1380   1.417       .  A
C1380      H1385   1.080       .  S
C1380      C1381   1.416       .  A
C1381      C1382   1.411       .  A
C1382      H1386   1.081       .  S
C1387      H1393   1.067       .  S
C1387      C1388   1.408       .  A
C1387      C1392   1.392       .  A
C1388      C1389   1.417       .  A
C1389      H1394   1.084       .  S
C1389      C1390   1.402       .  A
C1390      H1395   1.084       .  S
C1390      C1391   1.417       .  A
C1391      C1392   1.406       .  A
C1392      H1396   1.067       .  S
C1397      H1403   1.080       .  S
C1397      C1398   1.416       .  A
C1397      C1402   1.419       .  A
C1398      C1399   1.408       .  A
C1399      H1404   1.084       .  S
C1399      C1400   1.378       .  A
C1400      H1405   1.081       .  S
C1400      C1401   1.412       .  A
C1401      C1402   1.416       .  A
C1402      H1406   1.080       .  S
C1407      H1413   1.082       .  S
C1407      C1408   1.410       .  A
C1407      C1412   1.389       .  A
C1408      C1409   1.416       .  A
C1409      H1414   1.083       .  S
C1409      C1410   1.417       .  A
C1410      H1415   1.082       .  S
C1410      C1411   1.413       .  A
C1411      C1412   1.416       .  A
C1412      H1416   1.082       .  S
C1417      H1423   1.084       .  S
C1417      C1418   1.407       .  A
C1417      C1422   1.376       .  A
C1418      C1419   1.416       .  A
C1419      H1424   1.081       .  S
C1419      C1420   1.416       .  A
C1420      H1425   1.080       .  S
C1420      C1421   1.415       .  A
C1421      C1422   1.411       .  A
C1422      H1426   1.081       .  S
C1427      H1433   1.082       .  S
C1427      C1428   1.416       .  A
C1427      C1432   1.389       .  A
C1428      C1429   1.412       .  A
C1429      H1434   1.083       .  S
C1429      C1430   1.416       .  A
C1430      H1435   1.082       .  S
C1430      C1431   1.417       .  A
C1431      C1432   1.409       .  A
C1432      H1436   1.082       .  S
C1437      H1443   1.061       .  S
C1437      C1438   1.407       .  A
C1437      C1442   1.394       .  A
C1438      C1439   1.416       .  A
C1439      H1444   1.083       .  S
C1439      C1440   1.402       .  A
C1440      H1445   1.083       .  S
C1440      C1441   1.417       .  A
C1441      C1442   1.408       .  A
C1442      H1446   1.062       .  S
C1447      H1453   1.083       .  S
C1447      C1448   1.413       .  A
C1447      C1452   1.416       .  A
C1448      C1449   1.416       .  A
C1449      H1454   1.082       .  S
C1449      C1450   1.389       .  A
C1450      H1455   1.082       .  S
C1450      C1451   1.409       .  A
C1451      C1452   1.417       .  A
C1452      H1456   1.083       .  S
C1457      H1463   1.069       .  S
C1457      C1458   1.406       .  A
C1457      C1462   1.386       .  A
C1458      C1459   1.415       .  A
C1459      H1464   1.083       .  S
C1459      C1460   1.406       .  A
C1460      H1465   1.083       .  S
C1460      C1461   1.416       .  A
C1461      C1462   1.406       .  A
C1462      H1466   1.070       .  S
C1467      H1473   1.082       .  S
C1467      C1468   1.417       .  A
C1467      C1472   1.416       .  A
C1468      C1469   1.408       .  A
C1469      H1474   1.082       .  S
C1469      C1470   1.388       .  A
C1470      H1475   1.082       .  S
C1470      C1471   1.416       .  A
C1471      C1472   1.413       .  A
C1472      H1476   1.082       .  S
C1477      H1483   1.081       .  S
C1477      C1478   1.411       .  A
C1477      C1482   1.377       .  A
C1478      C1479   1.415       .  A
C1479      H1484   1.080       .  S
C1479      C1480   1.416       .  A
C1480      H1485   1.081       .  S
C1480      C1481   1.415       .  A
C1481      C1482   1.408       .  A
C1482      H1486   1.084       .  S
C1487      H1493   1.083       .  S
C1487      C1488   1.400       .  A
C1487      C1492   1.395       .  A
C1488      C1489   1.401       .  A
C1489      H1494   1.083       .  S
C1489      C1490   1.402       .  A
C1490      H1495   1.083       .  S
C1490      C1491   1.415       .  A
C1491      C1492   1.414       .  A
C1492      H1496   1.079       .  S
C1497      H1503   1.083       .  S
C1497      C1498   1.402       .  A
C1497      C1502   1.403       .  A
C1498      C1499   1.398       .  A
C1499      H1504   1.083       .  S
C1499      C1500   1.392       .  A
C1500      H1505   1.079       .  S
C1500      C1501   1.414       .  A
C1501      C1502   1.415       .  A
C1502      H1506   1.082       .  S
C1507      H1513   1.083       .  S
C1507      C1508   1.399       .  A
C1507      C1512   1.394       .  A
C1508      C1509   1.402       .  A
C1509      H1514   1.083       .  S
C1509      C1510   1.404       .  A
C1510      H1515   1.083       .  S
C1510      C1511   1.414       .  A
C1511      C1512   1.415       .  A
C1512      H1516   1.079       .  S
C1517      H1523   1.083       .  S
C1517      C1518   1.399       .  A
C1517      C1522   1.395       .  A
C1518      C1519   1.402       .  A
C1519      H1524   1.083       .  S
C1519      C1520   1.405       .  A
C1520      H1525   1.083       .  S
C1520      C1521   1.415       .  A
C1521      C1522   1.415       .  A
C1522      H1526   1.078       .  S
C1527      H1533   1.083       .  S
C1527      C1528   1.403       .  A
C1527      C1532   1.406       .  A
C1528      C1529   1.399       .  A
C1529      H1534   1.083       .  S
C1529      C1530   1.397       .  A
C1530      H1535   1.078       .  S
C1530      C1531   1.417       .  A
C1531      C1532   1.415       .  A
C1532      H1536   1.083       .  S
C1537      H1543   1.083       .  S
C1537      C1538   1.399       .  A
C1537      C1542   1.395       .  A
C1538      C1539   1.401       .  A
C1539      H1544   1.083       .  S
C1539      C1540   1.402       .  A
C1540      H1545   1.083       .  S
C1540      C1541   1.413       .  A
C1541      C1542   1.416       .  A
C1542      H1546   1.079       .  S
C1547      H1553   1.083       .  S
C1547      C1548   1.401       .  A
C1547      C1552   1.402       .  A
C1548      C1549   1.399       .  A
C1549      H1554   1.083       .  S
C1549      C1550   1.393       .  A
C1550      H1555   1.079       .  S
C1550      C1551   1.414       .  A
C1551      C1552   1.414       .  A
C1552      H1556   1.082       .  S
C1557      H1563   1.079       .  S
C1557      C1558   1.415       .  A
C1557      C1562   1.398       .  A
C1558      C1559   1.414       .  A
C1559      H1564   1.083       .  S
C1559      C1560   1.402       .  A
C1560      H1565   1.083       .  S
C1560      C1561   1.401       .  A
C1561      C1562   1.401       .  A
C1562      H1566   1.083       .  S
C1567      N1585   1.350       .  A
C1567      C1604   1.463       .  S
C1567      C1822   1.479       .  S
N1568      N1585   1.324       .  A
N1568      N1590   1.320       .  A
C1569      N1594   1.339       .  A
C1569      C1607   1.459       .  S
C1569      H1614   1.081       .  S
H1570      C1611   1.081       .  S
C1571      N1595   1.345       .  A
C1571      C1575   1.464       .  S
C1571      H1600   1.081       .  S
Co1572     N1873   2.097       .  S
Co1572     N1588   2.094       .  S
N1573      C1611   1.341       .  A
N1573      N1580   1.321       .  A
Co1574     N1577   2.079   1_545  S
C1575      N1613   1.348       .  A
C1575      C1809   1.475       .  S
N1576      N1583   1.320       .  A
N1576      N1606   1.327       .  A
N1576     Co1609   2.092   1_565  S
N1577      N1595   1.320       .  A
N1577      N1613   1.322       .  A
N1578      C1607   1.352       .  A
N1578      N1588   1.327       .  A
H1579      C1604   1.082       .  S
N1580      N1601   1.328       .  A
N1581      N1599   1.321       .  A
N1581      N1586   1.323       .  A
C1582      N1586   1.350       .  A
C1582      C1610   1.463       .  S
C1582      C1749   1.477       .  S
N1583      C1598   1.338       .  A
C1584      N1612   1.345       .  A
C1584      C1587   1.464       .  S
C1584      H1618   1.082       .  S
C1587      N1608   1.350       .  A
C1587      C1769   1.478       .  S
N1588      N1594   1.320       .  A
N1589      C1615   1.339       .  A
N1589      N1591   1.320       .  A
N1590      C1604   1.344       .  A
N1591      N1619   1.328       .  A
H1592      C1615   1.082       .  S
H1593      C1610   1.081       .  S
N1595     Co1870   2.093   1_565  S
N1596      N1608   1.323       .  A
N1596      N1612   1.320       .  A
N1596     Co1605   2.083       .  S
C1597      N1601   1.353       .  A
C1597      C1611   1.462       .  S
C1597      C1789   1.483       .  S
C1598      C1617   1.460       .  S
C1598      H1602   1.082       .  S
N1599      C1610   1.344       .  A
C1603      N1619   1.353       .  A
C1603      C1615   1.460       .  S
C1603      C1779   1.479       .  S
N1606      C1617   1.352       .  A
C1607      C1799   1.476       .  S
Co1609     N1856   2.094   1_544  S
N1612     Co1833   2.096   1_554  S
C1617      C1759   1.475       .  S
C1620      C1719   1.565       .  S
C1620      C1729   1.564       .  S
C1620      C1739   1.559       .  S
C1620      C1752   1.546       .  S
C1621      C1699   1.573       .  S
C1621      C1709   1.576       .  S
C1621      C1742   1.558       .  S
C1621      C1812   1.544       .  S
C1622      C1679   1.558       .  S
C1622      C1689   1.576       .  S
C1622      C1702   1.575       .  S
C1622      C1762   1.545       .  S
C1623      C1669   1.568       .  S
C1623      C1682   1.559       .  S
C1623      C1722   1.568       .  S
C1623      C1782   1.551       .  S
C1624      C1649   1.575       .  S
C1624      C1659   1.562       .  S
C1624      C1732   1.576       .  S
C1624      C1802   1.546       .  S
C1625      C1639   1.560       .  S
C1625      C1652   1.574       .  S
C1625      C1672   1.577       .  S
C1625      C1772   1.547       .  S
C1626      C1629   1.565       .  S
C1626      C1642   1.561       .  S
C1626      C1692   1.566       .  S
C1626      C1819   1.548       .  S
C1627      C1632   1.568       .  S
C1627      C1662   1.564       .  S
C1627      C1712   1.566       .  S
C1627      C1792   1.554       .  S
C1628      H1634   1.069       .  S
C1628      C1629   1.406       .  A
C1628      C1633   1.388       .  A
C1629      C1630   1.415       .  A
C1630      H1635   1.083       .  S
C1630      C1631   1.406       .  A
C1631      H1636   1.083       .  S
C1631      C1632   1.415       .  A
C1632      C1633   1.408       .  A
C1633      H1637   1.067       .  S
C1638      H1644   1.084       .  S
C1638      C1639   1.408       .  A
C1638      C1643   1.377       .  A
C1639      C1640   1.415       .  A
C1640      H1645   1.081       .  S
C1640      C1641   1.417       .  A
C1641      H1646   1.080       .  S
C1641      C1642   1.416       .  A
C1642      C1643   1.411       .  A
C1643      H1647   1.081       .  S
C1648      H1654   1.067       .  S
C1648      C1649   1.408       .  A
C1648      C1653   1.392       .  A
C1649      C1650   1.417       .  A
C1650      H1655   1.084       .  S
C1650      C1651   1.402       .  A
C1651      H1656   1.084       .  S
C1651      C1652   1.417       .  A
C1652      C1653   1.406       .  A
C1653      H1657   1.067       .  S
C1658      H1664   1.080       .  S
C1658      C1659   1.416       .  A
C1658      C1663   1.419       .  A
C1659      C1660   1.408       .  A
C1660      H1665   1.084       .  S
C1660      C1661   1.378       .  A
C1661      H1666   1.081       .  S
C1661      C1662   1.412       .  A
C1662      C1663   1.416       .  A
C1663      H1667   1.080       .  S
C1668      H1674   1.082       .  S
C1668      C1669   1.410       .  A
C1668      C1673   1.389       .  A
C1669      C1670   1.416       .  A
C1670      H1675   1.083       .  S
C1670      C1671   1.417       .  A
C1671      H1676   1.082       .  S
C1671      C1672   1.413       .  A
C1672      C1673   1.416       .  A
C1673      H1677   1.082       .  S
C1678      H1684   1.084       .  S
C1678      C1679   1.407       .  A
C1678      C1683   1.376       .  A
C1679      C1680   1.416       .  A
C1680      H1685   1.080       .  S
C1680      C1681   1.416       .  A
C1681      H1686   1.080       .  S
C1681      C1682   1.415       .  A
C1682      C1683   1.411       .  A
C1683      H1687   1.081       .  S
C1688      H1694   1.082       .  S
C1688      C1689   1.416       .  A
C1688      C1693   1.389       .  A
C1689      C1690   1.412       .  A
C1690      H1695   1.083       .  S
C1690      C1691   1.416       .  A
C1691      H1696   1.082       .  S
C1691      C1692   1.417       .  A
C1692      C1693   1.409       .  A
C1693      H1697   1.082       .  S
C1698      H1704   1.060       .  S
C1698      C1699   1.407       .  A
C1698      C1703   1.394       .  A
C1699      C1700   1.416       .  A
C1700      H1705   1.082       .  S
C1700      C1701   1.402       .  A
C1701      H1706   1.083       .  S
C1701      C1702   1.417       .  A
C1702      C1703   1.408       .  A
C1703      H1707   1.061       .  S
C1708      H1714   1.083       .  S
C1708      C1709   1.413       .  A
C1708      C1713   1.416       .  A
C1709      C1710   1.416       .  A
C1710      H1715   1.082       .  S
C1710      C1711   1.389       .  A
C1711      H1716   1.082       .  S
C1711      C1712   1.409       .  A
C1712      C1713   1.417       .  A
C1713      H1717   1.083       .  S
C1718      H1724   1.070       .  S
C1718      C1719   1.406       .  A
C1718      C1723   1.386       .  A
C1719      C1720   1.415       .  A
C1720      H1725   1.083       .  S
C1720      C1721   1.406       .  A
C1721      H1726   1.083       .  S
C1721      C1722   1.416       .  A
C1722      C1723   1.406       .  A
C1723      H1727   1.070       .  S
C1728      H1734   1.082       .  S
C1728      C1729   1.417       .  A
C1728      C1733   1.416       .  A
C1729      C1730   1.408       .  A
C1730      H1735   1.082       .  S
C1730      C1731   1.388       .  A
C1731      H1736   1.082       .  S
C1731      C1732   1.416       .  A
C1732      C1733   1.413       .  A
C1733      H1737   1.082       .  S
C1738      H1744   1.081       .  S
C1738      C1739   1.411       .  A
C1738      C1743   1.377       .  A
C1739      C1740   1.416       .  A
C1740      H1745   1.080       .  S
C1740      C1741   1.416       .  A
C1741      H1746   1.081       .  S
C1741      C1742   1.415       .  A
C1742      C1743   1.408       .  A
C1743      H1747   1.084       .  S
C1748      H1754   1.083       .  S
C1748      C1749   1.400       .  A
C1748      C1753   1.395       .  A
C1749      C1750   1.401       .  A
C1750      H1755   1.083       .  S
C1750      C1751   1.402       .  A
C1751      H1756   1.083       .  S
C1751      C1752   1.415       .  A
C1752      C1753   1.414       .  A
C1753      H1757   1.079       .  S
C1758      H1764   1.083       .  S
C1758      C1759   1.402       .  A
C1758      C1763   1.403       .  A
C1759      C1760   1.398       .  A
C1760      H1765   1.083       .  S
C1760      C1761   1.392       .  A
C1761      H1766   1.079       .  S
C1761      C1762   1.414       .  A
C1762      C1763   1.415       .  A
C1763      H1767   1.082       .  S
C1768      H1774   1.083       .  S
C1768      C1769   1.399       .  A
C1768      C1773   1.394       .  A
C1769      C1770   1.402       .  A
C1770      H1775   1.083       .  S
C1770      C1771   1.404       .  A
C1771      H1776   1.083       .  S
C1771      C1772   1.414       .  A
C1772      C1773   1.415       .  A
C1773      H1777   1.079       .  S
C1778      H1784   1.083       .  S
C1778      C1779   1.399       .  A
C1778      C1783   1.395       .  A
C1779      C1780   1.402       .  A
C1780      H1785   1.083       .  S
C1780      C1781   1.405       .  A
C1781      H1786   1.083       .  S
C1781      C1782   1.415       .  A
C1782      C1783   1.415       .  A
C1783      H1787   1.078       .  S
C1788      H1794   1.083       .  S
C1788      C1789   1.403       .  A
C1788      C1793   1.406       .  A
C1789      C1790   1.399       .  A
C1790      H1795   1.083       .  S
C1790      C1791   1.397       .  A
C1791      H1796   1.078       .  S
C1791      C1792   1.417       .  A
C1792      C1793   1.415       .  A
C1793      H1797   1.083       .  S
C1798      H1804   1.083       .  S
C1798      C1799   1.399       .  A
C1798      C1803   1.395       .  A
C1799      C1800   1.401       .  A
C1800      H1805   1.083       .  S
C1800      C1801   1.402       .  A
C1801      H1806   1.083       .  S
C1801      C1802   1.413       .  A
C1802      C1803   1.416       .  A
C1803      H1807   1.079       .  S
C1808      H1814   1.083       .  S
C1808      C1809   1.401       .  A
C1808      C1813   1.402       .  A
C1809      C1810   1.400       .  A
C1810      H1815   1.083       .  S
C1810      C1811   1.393       .  A
C1811      H1816   1.079       .  S
C1811      C1812   1.414       .  A
C1812      C1813   1.414       .  A
C1813      H1817   1.082       .  S
C1818      H1824   1.079       .  S
C1818      C1819   1.415       .  A
C1818      C1823   1.398       .  A
C1819      C1820   1.414       .  A
C1820      H1825   1.083       .  S
C1820      C1821   1.402       .  A
C1821      H1826   1.083       .  S
C1821      C1822   1.401       .  A
C1822      C1823   1.401       .  A
C1823      H1827   1.083       .  S
C1828      N1846   1.350       .  A
C1828      C1865   1.463       .  S
C1828      C2083   1.479       .  S
N1829      N1846   1.324       .  A
N1829      N1851   1.320       .  A
C1830      N1855   1.339       .  A
C1830      C1868   1.459       .  S
C1830      H1875   1.081       .  S
H1831      C1872   1.081       .  S
C1832      N1856   1.345       .  A
C1832      C1836   1.464       .  S
C1832      H1861   1.081       .  S
Co1833     N1849   2.095       .  S
N1834      C1872   1.341       .  A
N1834      N1841   1.321       .  A
Co1835     N1838   2.079   1_545  S
C1836      N1874   1.348       .  A
C1836      C2070   1.475       .  S
N1837      N1844   1.320       .  A
N1837      N1867   1.327       .  A
N1837     Co1870   2.092   1_565  S
N1838      N1856   1.320       .  A
N1838      N1874   1.322       .  A
N1839      C1868   1.352       .  A
N1839      N1849   1.327       .  A
H1840      C1865   1.082       .  S
N1841      N1862   1.328       .  A
N1842      N1860   1.321       .  A
N1842      N1847   1.324       .  A
C1843      N1847   1.350       .  A
C1843      C1871   1.463       .  S
C1843      C2010   1.477       .  S
N1844      C1859   1.338       .  A
C1845      N1873   1.345       .  A
C1845      C1848   1.464       .  S
C1845      H1879   1.082       .  S
C1848      N1869   1.350       .  A
C1848      C2030   1.478       .  S
N1849      N1855   1.320       .  A
N1850      C1876   1.340       .  A
N1850      N1852   1.320       .  A
N1851      C1865   1.345       .  A
N1852      N1880   1.328       .  A
H1853      C1876   1.082       .  S
H1854      C1871   1.081       .  S
N1857      N1869   1.323       .  A
N1857      N1873   1.320       .  A
N1857     Co1866   2.083       .  S
C1858      N1862   1.353       .  A
C1858      C1872   1.462       .  S
C1858      C2050   1.482       .  S
C1859      C1878   1.460       .  S
C1859      H1863   1.082       .  S
N1860      C1871   1.344       .  A
C1864      N1880   1.353       .  A
C1864      C1876   1.460       .  S
C1864      C2040   1.479       .  S
N1867      C1878   1.352       .  A
C1868      C2060   1.476       .  S
C1878      C2020   1.476       .  S
C1881      C1980   1.565       .  S
C1881      C1990   1.564       .  S
C1881      C2000   1.559       .  S
C1881      C2013   1.546       .  S
C1882      C1960   1.573       .  S
C1882      C1970   1.576       .  S
C1882      C2003   1.558       .  S
C1882      C2073   1.544       .  S
C1883      C1940   1.558       .  S
C1883      C1950   1.576       .  S
C1883      C1963   1.576       .  S
C1883      C2023   1.546       .  S
C1884      C1930   1.569       .  S
C1884      C1943   1.559       .  S
C1884      C1983   1.568       .  S
C1884      C2043   1.551       .  S
C1885      C1910   1.575       .  S
C1885      C1920   1.562       .  S
C1885      C1993   1.576       .  S
C1885      C2063   1.547       .  S
C1886      C1900   1.560       .  S
C1886      C1913   1.574       .  S
C1886      C1933   1.577       .  S
C1886      C2033   1.547       .  S
C1887      C1890   1.565       .  S
C1887      C1903   1.561       .  S
C1887      C1953   1.566       .  S
C1887      C2080   1.548       .  S
C1888      C1893   1.568       .  S
C1888      C1923   1.564       .  S
C1888      C1973   1.566       .  S
C1888      C2053   1.554       .  S
C1889      H1895   1.069       .  S
C1889      C1890   1.406       .  A
C1889      C1894   1.388       .  A
C1890      C1891   1.415       .  A
C1891      H1896   1.083       .  S
C1891      C1892   1.406       .  A
C1892      H1897   1.083       .  S
C1892      C1893   1.415       .  A
C1893      C1894   1.408       .  A
C1894      H1898   1.067       .  S
C1899      H1905   1.084       .  S
C1899      C1900   1.408       .  A
C1899      C1904   1.377       .  A
C1900      C1901   1.415       .  A
C1901      H1906   1.081       .  S
C1901      C1902   1.417       .  A
C1902      H1907   1.080       .  S
C1902      C1903   1.416       .  A
C1903      C1904   1.411       .  A
C1904      H1908   1.081       .  S
C1909      H1915   1.067       .  S
C1909      C1910   1.408       .  A
C1909      C1914   1.392       .  A
C1910      C1911   1.417       .  A
C1911      H1916   1.084       .  S
C1911      C1912   1.402       .  A
C1912      H1917   1.084       .  S
C1912      C1913   1.417       .  A
C1913      C1914   1.406       .  A
C1914      H1918   1.067       .  S
C1919      H1925   1.080       .  S
C1919      C1920   1.416       .  A
C1919      C1924   1.419       .  A
C1920      C1921   1.408       .  A
C1921      H1926   1.084       .  S
C1921      C1922   1.378       .  A
C1922      H1927   1.081       .  S
C1922      C1923   1.412       .  A
C1923      C1924   1.416       .  A
C1924      H1928   1.080       .  S
C1929      H1935   1.082       .  S
C1929      C1930   1.410       .  A
C1929      C1934   1.389       .  A
C1930      C1931   1.416       .  A
C1931      H1936   1.083       .  S
C1931      C1932   1.417       .  A
C1932      H1937   1.082       .  S
C1932      C1933   1.413       .  A
C1933      C1934   1.416       .  A
C1934      H1938   1.082       .  S
C1939      H1945   1.084       .  S
C1939      C1940   1.407       .  A
C1939      C1944   1.376       .  A
C1940      C1941   1.416       .  A
C1941      H1946   1.081       .  S
C1941      C1942   1.416       .  A
C1942      H1947   1.080       .  S
C1942      C1943   1.415       .  A
C1943      C1944   1.411       .  A
C1944      H1948   1.081       .  S
C1949      H1955   1.082       .  S
C1949      C1950   1.416       .  A
C1949      C1954   1.389       .  A
C1950      C1951   1.412       .  A
C1951      H1956   1.083       .  S
C1951      C1952   1.416       .  A
C1952      H1957   1.082       .  S
C1952      C1953   1.417       .  A
C1953      C1954   1.409       .  A
C1954      H1958   1.082       .  S
C1959      H1965   1.061       .  S
C1959      C1960   1.407       .  A
C1959      C1964   1.394       .  A
C1960      C1961   1.416       .  A
C1961      H1966   1.083       .  S
C1961      C1962   1.402       .  A
C1962      H1967   1.083       .  S
C1962      C1963   1.417       .  A
C1963      C1964   1.408       .  A
C1964      H1968   1.062       .  S
C1969      H1975   1.083       .  S
C1969      C1970   1.413       .  A
C1969      C1974   1.416       .  A
C1970      C1971   1.416       .  A
C1971      H1976   1.082       .  S
C1971      C1972   1.389       .  A
C1972      H1977   1.082       .  S
C1972      C1973   1.409       .  A
C1973      C1974   1.417       .  A
C1974      H1978   1.083       .  S
C1979      H1985   1.069       .  S
C1979      C1980   1.406       .  A
C1979      C1984   1.386       .  A
C1980      C1981   1.415       .  A
C1981      H1986   1.083       .  S
C1981      C1982   1.406       .  A
C1982      H1987   1.083       .  S
C1982      C1983   1.416       .  A
C1983      C1984   1.406       .  A
C1984      H1988   1.070       .  S
C1989      H1995   1.082       .  S
C1989      C1990   1.417       .  A
C1989      C1994   1.416       .  A
C1990      C1991   1.408       .  A
C1991      H1996   1.082       .  S
C1991      C1992   1.388       .  A
C1992      H1997   1.082       .  S
C1992      C1993   1.416       .  A
C1993      C1994   1.413       .  A
C1994      H1998   1.082       .  S
C1999      H2005   1.081       .  S
C1999      C2000   1.411       .  A
C1999      C2004   1.377       .  A
C2000      C2001   1.415       .  A
C2001      H2006   1.080       .  S
C2001      C2002   1.416       .  A
C2002      H2007   1.081       .  S
C2002      C2003   1.415       .  A
C2003      C2004   1.408       .  A
C2004      H2008   1.084       .  S
C2009      H2015   1.083       .  S
C2009      C2010   1.400       .  A
C2009      C2014   1.395       .  A
C2010      C2011   1.401       .  A
C2011      H2016   1.083       .  S
C2011      C2012   1.402       .  A
C2012      H2017   1.083       .  S
C2012      C2013   1.415       .  A
C2013      C2014   1.414       .  A
C2014      H2018   1.079       .  S
C2019      H2025   1.083       .  S
C2019      C2020   1.402       .  A
C2019      C2024   1.403       .  A
C2020      C2021   1.398       .  A
C2021      H2026   1.083       .  S
C2021      C2022   1.392       .  A
C2022      H2027   1.079       .  S
C2022      C2023   1.414       .  A
C2023      C2024   1.415       .  A
C2024      H2028   1.082       .  S
C2029      H2035   1.083       .  S
C2029      C2030   1.399       .  A
C2029      C2034   1.394       .  A
C2030      C2031   1.402       .  A
C2031      H2036   1.083       .  S
C2031      C2032   1.404       .  A
C2032      H2037   1.083       .  S
C2032      C2033   1.414       .  A
C2033      C2034   1.415       .  A
C2034      H2038   1.079       .  S
C2039      H2045   1.083       .  S
C2039      C2040   1.399       .  A
C2039      C2044   1.395       .  A
C2040      C2041   1.402       .  A
C2041      H2046   1.083       .  S
C2041      C2042   1.405       .  A
C2042      H2047   1.083       .  S
C2042      C2043   1.415       .  A
C2043      C2044   1.415       .  A
C2044      H2048   1.078       .  S
C2049      H2055   1.083       .  S
C2049      C2050   1.403       .  A
C2049      C2054   1.406       .  A
C2050      C2051   1.399       .  A
C2051      H2056   1.083       .  S
C2051      C2052   1.397       .  A
C2052      H2057   1.078       .  S
C2052      C2053   1.417       .  A
C2053      C2054   1.415       .  A
C2054      H2058   1.083       .  S
C2059      H2065   1.083       .  S
C2059      C2060   1.399       .  A
C2059      C2064   1.395       .  A
C2060      C2061   1.401       .  A
C2061      H2066   1.083       .  S
C2061      C2062   1.402       .  A
C2062      H2067   1.083       .  S
C2062      C2063   1.413       .  A
C2063      C2064   1.416       .  A
C2064      H2068   1.079       .  S
C2069      H2075   1.083       .  S
C2069      C2070   1.401       .  A
C2069      C2074   1.402       .  A
C2070      C2071   1.399       .  A
C2071      H2076   1.083       .  S
C2071      C2072   1.393       .  A
C2072      H2077   1.079       .  S
C2072      C2073   1.414       .  A
C2073      C2074   1.414       .  A
C2074      H2078   1.082       .  S
C2079      H2085   1.079       .  S
C2079      C2080   1.415       .  A
C2079      C2084   1.398       .  A
C2080      C2081   1.414       .  A
C2081      H2086   1.083       .  S
C2081      C2082   1.402       .  A
C2082      H2087   1.083       .  S
C2082      C2083   1.401       .  A
C2083      C2084   1.401       .  A
C2084      H2088   1.083       .  S
