geometry optimzed in LAMMPS
_audit_creation_date              2020-12-01 
_audit_creation_method            'lammps2cif' 
_symmetry_space_group_name_H-M    'P1' 
_symmetry_Int_Tables_number       1 
_symmetry_cell_setting            triclinic 
loop_ 
_symmetry_equiv_pos_as_xyz 
  x,y,z 
_cell_length_a                    23.32819058 
_cell_length_b                    24.665678064933985 
_cell_length_c                    22.135579022216547 
_cell_angle_alpha                 90.12907935731107 
_cell_angle_beta                  91.13737212353955 
_cell_angle_gamma                 89.91686483743811 
loop_ 
_atom_site_label 
_atom_site_type_symbol 
_atom_site_fract_x 
_atom_site_fract_y 
_atom_site_fract_z 
_atom_site_charge 
O1          O  0.44479325  0.38051989  0.46378250    -0.81600
O2          O  0.04228513  0.09021387  0.42447429    -0.81600
O3          O  0.41480222  0.05101080  0.40597562    -0.81600
O4          O  0.11837961  0.44282767  0.46458124    -0.81600
O5          O  0.44574467  0.12004636  0.45930781    -0.81700
O6          O  0.04160241  0.40937549  0.42810061    -0.81600
O7          O  0.11880367  0.05830905  0.46282795    -0.81600
O8          O  0.41360098  0.44848026  0.40915747    -0.81600
C9          C  0.41559183  0.39879002  0.41897329     1.08100
C10         C  0.09551143  0.09015383  0.42490126     1.08000
C11         C  0.41663414  0.10088728  0.41474690     1.08100
C12         C  0.09482459  0.40990486  0.42797492     1.08000
O13         O  0.05312301  0.36634955  0.04253405    -0.81600
O14         O  0.46017300  0.08365142  0.07846529    -0.81700
O15         O  0.38100896  0.44283007  0.03399394    -0.81600
O16         O  0.07069897  0.05817107  0.08362914    -0.81600
O17         O  0.05380756  0.13612540  0.03853311    -0.81600
O18         O  0.45989745  0.42018708  0.08169054    -0.81600
O19         O  0.07109332  0.44499598  0.08595635    -0.81600
O20         O  0.38150828  0.06156015  0.03016597    -0.81600
Co21       Co  0.50586047  0.42274399  0.00660059     1.51500
Co22       Co  0.00653271  0.07886079  0.50376214     1.51700
Co23       Co  0.40486899  0.50079581  0.97360132     1.51600
Co24       Co  0.08430772  0.00125782  0.51923775     1.51500
O25         O  0.49332518  0.50054602  0.48714003    -1.43500
C26         C  0.07996559  0.39371229  0.08349883     1.08000
C27         C  0.40667077  0.09041705  0.07023931     1.08100
C28         C  0.40627569  0.41394670  0.07407865     1.08100
C29         C  0.08030114  0.10922527  0.08010589     1.08000
C30         C  0.12886594  0.12874239  0.38165060    -0.03900
C31         C  0.12794555  0.37159079  0.38442184    -0.01300
C32         C  0.12346406  0.36886553  0.12840968    -0.03900
C33         C  0.12405681  0.13405905  0.12476418    -0.03900
C34         C  0.38190928  0.13674091  0.37349612    -0.03900
C35         C  0.37068442  0.13027098  0.10906397    -0.03900
C36         C  0.37069922  0.37365594  0.11292093    -0.03900
C37         C  0.38150397  0.36233859  0.37772618    -0.03900
C38         C  0.42943302  0.35838108  0.21031720    -0.14800
C39         C  0.38500991  0.38781521  0.18086722     0.07300
C40         C  0.35162756  0.42087826  0.21852144    -0.14800
C41         C  0.35755031  0.41787092  0.28162969    -0.14800
C42         C  0.39204192  0.37738327  0.31006105     0.07300
C43         C  0.43019622  0.34997258  0.27235887    -0.14800
H44         H  0.45925612  0.33458149  0.18442763     0.11300
H45         H  0.31961892  0.44822788  0.20140560     0.11300
H46         H  0.33020203  0.44379288  0.30815026     0.11300
H47         H  0.46081916  0.32083535  0.28790754     0.11300
C48         C  0.35343693  0.22380549  0.15022102    -0.14800
C49         C  0.38328851  0.19330731  0.10679378     0.07300
C50         C  0.41714588  0.22313831  0.06601820    -0.14800
C51         C  0.41717342  0.28141521  0.06696749    -0.14800
C52         C  0.38325950  0.31059011  0.10859541     0.07300
C53         C  0.35340057  0.27927941  0.15104951    -0.14800
H54         H  0.32625233  0.20395097  0.18260219     0.11300
H55         H  0.44195842  0.20203402  0.03265502     0.11300
H56         H  0.44224624  0.30294613  0.03447157     0.11300
H57         H  0.32625275  0.29853066  0.18405801     0.11300
C58         C  0.43061278  0.14964695  0.26874779    -0.14800
C59         C  0.39215677  0.12207490  0.30559173     0.07300
C60         C  0.35669958  0.08283576  0.27584431    -0.14800
C61         C  0.35047979  0.08146227  0.21257720    -0.14800
C62         C  0.38452742  0.11471400  0.17633573     0.07300
C63         C  0.42951232  0.14270436  0.20651907    -0.14800
H64         H  0.46145582  0.17814029  0.28523171     0.11300
H65         H  0.32892724  0.05682591  0.30151393     0.11300
H66         H  0.31783723  0.05551136  0.19364109     0.11300
H67         H  0.45939273  0.16682782  0.18127528     0.11300
C68         C  0.36034110  0.27638884  0.43602485    -0.14800
C69         C  0.39678315  0.30446442  0.39725993     0.07300
C70         C  0.44875735  0.27807645  0.38558338    -0.14800
C71         C  0.44859393  0.22142697  0.38352376    -0.14800
C72         C  0.39657763  0.19466357  0.39387821     0.07300
C73         C  0.36061067  0.22119965  0.43475086    -0.14800
H74         H  0.32745601  0.29616694  0.46141815     0.11300
H75         H  0.48704559  0.30055192  0.37608492     0.11300
H76         H  0.48697805  0.19936939  0.37300205     0.11300
H77         H  0.32836196  0.20032539  0.45988361     0.11300
C78         C  0.21297052  0.17222028  0.07055226    -0.14800
C79         C  0.18356528  0.12799638  0.09439553     0.07300
C80         C  0.21308426  0.07845000  0.09247788    -0.14800
C81         C  0.27356841  0.07789560  0.09161775    -0.14800
C82         C  0.30483510  0.12622414  0.08953988     0.07300
C83         C  0.27247945  0.17113889  0.06718257    -0.14800
H84         H  0.19071128  0.20899213  0.05901956     0.11300
H85         H  0.18979636  0.04202281  0.10008528     0.11300
H86         H  0.29662982  0.04100245  0.09558124     0.11300
H87         H  0.29222489  0.20768979  0.05172546     0.11300
C88         C  0.15486766  0.22285277  0.17423708    -0.14800
C89         C  0.11311582  0.19431189  0.13984457     0.07300
C90         C  0.06379629  0.22317908  0.12161097    -0.14800
C91         C  0.06351862  0.27967204  0.12303558    -0.14800
C92         C  0.11283628  0.30833265  0.14189263     0.07300
C93         C  0.15480483  0.27919067  0.17512152    -0.14800
H94         H  0.19106086  0.20184674  0.19479096     0.11300
H95         H  0.02564657  0.20288102  0.10574209     0.11300
H96         H  0.02495637  0.30013715  0.10865685     0.11300
H97         H  0.19093939  0.29982422  0.19625286     0.11300
C98         C  0.21282917  0.42523610  0.10114343    -0.14800
C99         C  0.18312808  0.37592003  0.09871177     0.07300
C100        C  0.21272747  0.33273275  0.07256985    -0.14800
C101        C  0.27236265  0.33396784  0.06948524    -0.14800
C102        C  0.30468416  0.37799268  0.09418608     0.07300
C103        C  0.27320558  0.42577238  0.10044851    -0.14800
H104        H  0.19004329  0.46036594  0.11532248     0.11300
H105        H  0.19051568  0.29646005  0.05913164     0.11300
H106        H  0.29227075  0.29801204  0.05248143     0.11300
H107        H  0.29602106  0.46174857  0.11005002     0.11300
C108        C  0.06884901  0.39729660  0.28709043    -0.14800
C109        C  0.12112305  0.39715217  0.31986278     0.07300
C110        C  0.16889609  0.41640076  0.28812370    -0.14800
C111        C  0.17076752  0.41007348  0.22603326    -0.14800
C112        C  0.12103398  0.39644640  0.19189057     0.07300
C113        C  0.06907262  0.39781123  0.22327023    -0.14800
H114        H  0.02932966  0.39048622  0.31026036     0.11300
H115        H  0.20862219  0.42759553  0.31076970     0.11300
H116        H  0.21320601  0.41006137  0.20821194     0.11300
H117        H  0.02974168  0.39363032  0.19806800     0.11300
C118        C  0.22294508  0.32918129  0.35873214    -0.14800
C119        C  0.19393786  0.36589849  0.39686968     0.07300
C120        C  0.22876327  0.40171919  0.43193020    -0.14800
C121        C  0.28850164  0.40250044  0.42592719    -0.14800
C122        C  0.31571688  0.36762668  0.38511392     0.07300
C123        C  0.28134987  0.33163894  0.35116545    -0.14800
H124        H  0.19996361  0.30204841  0.32866574     0.11300
H125        H  0.21225023  0.43133593  0.46240069     0.11300
H126        H  0.31261282  0.43156099  0.45220834     0.11300
H127        H  0.30053218  0.30412643  0.31905166     0.11300
C128        C  0.17060915  0.08590621  0.28353883    -0.14800
C129        C  0.12262057  0.10439619  0.31612028     0.07300
C130        C  0.07037737  0.10478450  0.28344680    -0.14800
C131        C  0.07036919  0.10504074  0.21965394    -0.14800
C132        C  0.12206900  0.10581567  0.18776658     0.07300
C133        C  0.17181156  0.09113002  0.22108086    -0.14800
H134        H  0.21053606  0.07468301  0.30569495     0.11300
H135        H  0.03096128  0.11149534  0.30689261     0.11300
H136        H  0.03098861  0.11012525  0.19483767     0.11300
H137        H  0.21365100  0.08911765  0.20184046     0.11300
C138        C  0.22951790  0.09568590  0.42639666    -0.14800
C139        C  0.19474332  0.13384170  0.39449942     0.07300
C140        C  0.22372303  0.17175142  0.35810288    -0.14800
C141        C  0.28180688  0.16841257  0.34899412    -0.14800
C142        C  0.31625783  0.13117179  0.38104169     0.07300
C143        C  0.28923941  0.09490345  0.42020659    -0.14800
H144        H  0.21286693  0.06394311  0.45381514     0.11300
H145        H  0.20084870  0.20050551  0.32999684     0.11300
H146        H  0.30083833  0.19671769  0.31781645     0.11300
H147        H  0.31339526  0.06447662  0.44450308     0.11300
C148        C  0.11186279  0.27884055  0.44057861    -0.14800
C149        C  0.10541472  0.31011799  0.38708645     0.07300
C150        C  0.09243934  0.27925284  0.33421594    -0.14800
C151        C  0.09282706  0.22191964  0.33352354    -0.14800
C152        C  0.10617186  0.19030555  0.38565455     0.07300
C153        C  0.11235726  0.22087696  0.43985813    -0.14800
H154        H  0.12186480  0.29935238  0.48257131     0.11300
H155        H  0.08836796  0.29815058  0.29061514     0.11300
H156        H  0.08900334  0.20374247  0.28945122     0.11300
H157        H  0.12290164  0.19989128  0.48130323     0.11300
O158        O  0.44478072  0.38041863  0.96368448    -0.81600
O159        O  0.04214004  0.09013951  0.92442665    -0.81600
O160        O  0.41467373  0.05098641  0.90602205    -0.81600
O161        O  0.11829172  0.44278228  0.96459698    -0.81600
O162        O  0.44560482  0.12007568  0.95925949    -0.81700
O163        O  0.04155304  0.40943613  0.92791632    -0.81600
O164        O  0.11863811  0.05820152  0.96280444    -0.81600
O165        O  0.41358004  0.44840359  0.90909413    -0.81600
C166        C  0.41555840  0.39870707  0.91889509     1.08100
C167        C  0.09536302  0.09004285  0.92485704     1.08000
C168        C  0.41649138  0.10086432  0.91471602     1.08100
C169        C  0.09477787  0.40989841  0.92788837     1.08000
O170        O  0.05289556  0.36621643  0.54260315    -0.81600
O171        O  0.46014918  0.08357243  0.57845704    -0.81700
O172        O  0.38100343  0.44289048  0.53402106    -0.81600
O173        O  0.07063349  0.05806399  0.58356773    -0.81600
O174        O  0.05380634  0.13607821  0.53859078    -0.81600
O175        O  0.45983182  0.42025222  0.58179880    -0.81600
O176        O  0.07118913  0.44487780  0.58590668    -0.81600
O177        O  0.38157261  0.06147707  0.53003248    -0.81600
Co178      Co  0.50588674  0.42277707  0.50674685     1.51500
Co179      Co  0.00643893  0.07890463  0.00374167     1.51700
Co180      Co  0.40498823  0.50086531  0.47367030     1.51600
Co181      Co  0.08412134  0.00123598  0.01931182     1.51500
O182        O  0.49319205  0.50052642  0.98712134    -1.43500
C183        C  0.07989651  0.39355187  0.58346953     1.08000
C184        C  0.40664269  0.09031450  0.57016675     1.08100
C185        C  0.40621763  0.41396200  0.57409906     1.08100
C186        C  0.08025423  0.10910673  0.58012877     1.08000
C187        C  0.12872957  0.12862341  0.88161869    -0.03900
C188        C  0.12793612  0.37148181  0.88441113    -0.01300
C189        C  0.12340787  0.36861751  0.62829437    -0.03900
C190        C  0.12398064  0.13384378  0.62481232    -0.03900
C191        C  0.38170983  0.13663313  0.87340599    -0.03900
C192        C  0.37051554  0.13009759  0.60895800    -0.03900
C193        C  0.37057482  0.37361359  0.61286501    -0.03900
C194        C  0.38143116  0.36228291  0.87765035    -0.03900
C195        C  0.42940448  0.35885029  0.71021353    -0.14800
C196        C  0.38470466  0.38789830  0.68077744     0.07300
C197        C  0.35092810  0.42060190  0.71840508    -0.14800
C198        C  0.35684244  0.41761545  0.78151046    -0.14800
C199        C  0.39176480  0.37744878  0.80995890     0.07300
C200        C  0.43028567  0.35049030  0.77227097    -0.14800
H201        H  0.45937927  0.33525635  0.68428943     0.11300
H202        H  0.31861898  0.44762912  0.70123478     0.11300
H203        H  0.32923108  0.44330301  0.80800152     0.11300
H204        H  0.46126710  0.32170998  0.78784044     0.11300
C205        C  0.35344780  0.22368097  0.65036267    -0.14800
C206        C  0.38319559  0.19316975  0.60686039     0.07300
C207        C  0.41699408  0.22303146  0.56604539    -0.14800
C208        C  0.41703989  0.28131789  0.56699855    -0.14800
C209        C  0.38324581  0.31052150  0.60871189     0.07300
C210        C  0.35347840  0.27919197  0.65123989    -0.14800
H211        H  0.32627952  0.20382899  0.68275693     0.11300
H212        H  0.44172523  0.20193872  0.53260898     0.11300
H213        H  0.44201034  0.30284157  0.53440671     0.11300
H214        H  0.32638206  0.29844453  0.68429108     0.11300
C215        C  0.43054373  0.14892561  0.76861351    -0.14800
C216        C  0.39173663  0.12181228  0.80546845     0.07300
C217        C  0.35579969  0.08295810  0.77569860    -0.14800
C218        C  0.34961797  0.08160093  0.71243326    -0.14800
C219        C  0.38413460  0.11440580  0.67619633     0.07300
C220        C  0.42936187  0.14200835  0.70637439    -0.14800
H221        H  0.46169527  0.17710725  0.78509005     0.11300
H222        H  0.32771195  0.05722729  0.80132815     0.11300
H223        H  0.31666953  0.05600079  0.69347301     0.11300
H224        H  0.45938900  0.16593452  0.68110008     0.11300
C225        C  0.36059649  0.27632221  0.93603904    -0.14800
C226        C  0.39681292  0.30438842  0.89703448     0.07300
C227        C  0.44868329  0.27796251  0.88503862    -0.14800
C228        C  0.44845787  0.22131644  0.88294940    -0.14800
C229        C  0.39648051  0.19458491  0.89356804     0.07300
C230        C  0.36076828  0.22113410  0.93467823    -0.14800
H231        H  0.32790526  0.29612830  0.96167173     0.11300
H232        H  0.48700557  0.30040245  0.87564090     0.11300
H233        H  0.48683523  0.19923372  0.87250407     0.11300
H234        H  0.32864828  0.20026733  0.95998879     0.11300
C235        C  0.21286727  0.17210024  0.57069207    -0.14800
C236        C  0.18347438  0.12782169  0.59440404     0.07300
C237        C  0.21292202  0.07824794  0.59211329    -0.14800
C238        C  0.27342503  0.07762209  0.59105708    -0.14800
C239        C  0.30470397  0.12601984  0.58930291     0.07300
C240        C  0.27236056  0.17101575  0.56722240    -0.14800
H241        H  0.19059660  0.20888009  0.55929353     0.11300
H242        H  0.18957244  0.04176302  0.59929037     0.11300
H243        H  0.29640111  0.04062627  0.59459756     0.11300
H244        H  0.29211184  0.20759593  0.55187410     0.11300
C245        C  0.15470714  0.22262260  0.67434910    -0.14800
C246        C  0.11297236  0.19407199  0.63996631     0.07300
C247        C  0.06364792  0.22293721  0.62171466    -0.14800
C248        C  0.06340548  0.27943415  0.62301457    -0.14800
C249        C  0.11274213  0.30809206  0.64181922     0.07300
C250        C  0.15468985  0.27895934  0.67510297    -0.14800
H251        H  0.19088887  0.20162338  0.69493502     0.11300
H252        H  0.02547566  0.20263701  0.60590227     0.11300
H253        H  0.02484972  0.29989164  0.60860620     0.11300
H254        H  0.19084869  0.29958319  0.69619099     0.11300
C255        C  0.21263734  0.42502267  0.60072571    -0.14800
C256        C  0.18303498  0.37563946  0.59851416     0.07300
C257        C  0.21270807  0.33242494  0.57254678    -0.14800
C258        C  0.27234105  0.33372376  0.56947179    -0.14800
C259        C  0.30458285  0.37786750  0.59400317     0.07300
C260        C  0.27300914  0.42561378  0.59999022    -0.14800
H261        H  0.18972716  0.46017044  0.61457653     0.11300
H262        H  0.19054237  0.29611660  0.55919720     0.11300
H263        H  0.29232246  0.29776575  0.55257856     0.11300
H264        H  0.29578381  0.46171536  0.60938004     0.11300
C265        C  0.06904038  0.39739195  0.78701579    -0.14800
C266        C  0.12132202  0.39695602  0.81977087     0.07300
C267        C  0.16923110  0.41583058  0.78795527    -0.14800
C268        C  0.17099701  0.40951602  0.72585054    -0.14800
C269        C  0.12114545  0.39620853  0.69176620     0.07300
C270        C  0.06922207  0.39787808  0.72319368    -0.14800
H271        H  0.02947813  0.39093012  0.81022125     0.11300
H272        H  0.20905117  0.42681251  0.81053600     0.11300
H273        H  0.21339135  0.40928738  0.70789694     0.11300
H274        H  0.02983466  0.39402272  0.69802707     0.11300
C275        C  0.22290597  0.32883401  0.85910143    -0.14800
C276        C  0.19388741  0.36570436  0.89704904     0.07300
C277        C  0.22870711  0.40162082  0.93199394    -0.14800
C278        C  0.28845050  0.40237705  0.92600434    -0.14800
C279        C  0.31565471  0.36744548  0.88524427     0.07300
C280        C  0.28129028  0.33133906  0.85145097    -0.14800
H281        H  0.19994316  0.30161013  0.82912681     0.11300
H282        H  0.21218069  0.43134647  0.96232733     0.11300
H283        H  0.31256336  0.43151944  0.95217236     0.11300
H284        H  0.30046182  0.30379280  0.81936497     0.11300
C285        C  0.17060747  0.08578786  0.78352574    -0.14800
C286        C  0.12257935  0.10424562  0.81609005     0.07300
C287        C  0.07033973  0.10447483  0.78342785    -0.14800
C288        C  0.07031997  0.10464083  0.71963906    -0.14800
C289        C  0.12201086  0.10550036  0.68774792     0.07300
C290        C  0.17176905  0.09085658  0.72103598    -0.14800
H291        H  0.21055238  0.07465121  0.80569702     0.11300
H292        H  0.03091212  0.11104080  0.80688770     0.11300
H293        H  0.03092553  0.10954574  0.69481577     0.11300
H294        H  0.21356202  0.08876844  0.70169353     0.11300
C295        C  0.22935601  0.09566262  0.92652405    -0.14800
C296        C  0.19457572  0.13375942  0.89454168     0.07300
C297        C  0.22353893  0.17168682  0.85816795    -0.14800
C298        C  0.28162261  0.16841261  0.84913587    -0.14800
C299        C  0.31607917  0.13117066  0.88117241     0.07300
C300        C  0.28908272  0.09491721  0.92037089    -0.14800
H301        H  0.21271233  0.06393461  0.95397019     0.11300
H302        H  0.20065962  0.20038085  0.82999097     0.11300
H303        H  0.30063673  0.19669691  0.81792388     0.11300
H304        H  0.31325396  0.06450508  0.94467583     0.11300
C305        C  0.11171187  0.27872794  0.94053601    -0.14800
C306        C  0.10529572  0.31002343  0.88705206     0.07300
C307        C  0.09229948  0.27915815  0.83417028    -0.14800
C308        C  0.09265353  0.22180653  0.83347201    -0.14800
C309        C  0.10600298  0.19018829  0.88560175     0.07300
C310        C  0.11219493  0.22076412  0.93980307    -0.14800
H311        H  0.12174307  0.29922083  0.98253357     0.11300
H312        H  0.08818453  0.29807970  0.79058245     0.11300
H313        H  0.08876232  0.20359472  0.78941672     0.11300
H314        H  0.12276801  0.19978053  0.98124137     0.11300
O315        O  0.44332080  0.88131064  0.46651213    -0.81600
O316        O  0.04242965  0.59037515  0.42698862    -0.81600
O317        O  0.41521219  0.55138463  0.40805114    -0.81600
O318        O  0.11786735  0.94372358  0.46338314    -0.81600
O319        O  0.44585065  0.61984461  0.46239000    -0.81700
O320        O  0.04098061  0.90670623  0.43139295    -0.81600
O321        O  0.11909747  0.55739636  0.46404121    -0.81600
O322        O  0.41420991  0.94832562  0.40952981    -0.81600
C323        C  0.41501761  0.89898353  0.42072395     1.08100
C324        C  0.09562578  0.58964786  0.42675363     1.08000
C325        C  0.41691142  0.60110616  0.41751803     1.08100
C326        C  0.09410389  0.90863604  0.42959116     1.08000
O327        O  0.04988313  0.86631914  0.04607818    -0.81600
O328        O  0.46036666  0.58234417  0.08093242    -0.81700
O329        O  0.38025123  0.94426785  0.03472239    -0.81600
O330        O  0.07134012  0.55766000  0.08494141    -0.81600
O331        O  0.05302398  0.63597394  0.04101833    -0.81600
O332        O  0.45888145  0.92366211  0.08394231    -0.81600
O333        O  0.07196095  0.94572031  0.08590208    -0.81600
O334        O  0.38150693  0.56056545  0.03269799    -0.81600
Co335      Co  0.50494140  0.92339207  0.00905313     1.51500
Co336      Co  0.00691732  0.57832872  0.50606977     1.51700
Co337      Co  0.40469846  0.00127908  0.97274143     1.51600
Co338      Co  0.08444906  0.50063156  0.52029152     1.51500
O339        O  0.49324519  0.00070433  0.48615615    -1.43500
C340        C  0.07879306  0.89404101  0.08511298     1.08000
C341        C  0.40691393  0.58958849  0.07272187     1.08100
C342        C  0.40548472  0.91636122  0.07582415     1.08100
C343        C  0.08028813  0.60891533  0.08189861     1.08000
C344        C  0.12868259  0.62752909  0.38292178    -0.03900
C345        C  0.12682749  0.87062623  0.38574795    -0.01300
C346        C  0.12220950  0.86916079  0.13016988    -0.03900
C347        C  0.12385876  0.63390312  0.12671398    -0.03900
C348        C  0.38250100  0.63713346  0.37629859    -0.03900
C349        C  0.37158068  0.63070513  0.11126533    -0.03900
C350        C  0.37053647  0.87516412  0.11443924    -0.03900
C351        C  0.38109471  0.86242521  0.37943462    -0.03900
C352        C  0.42720328  0.85186819  0.21240034    -0.14800
C353        C  0.38697863  0.88653841  0.18299650     0.07300
C354        C  0.36082872  0.92498942  0.22086591    -0.14800
C355        C  0.36606955  0.92093072  0.28410446    -0.14800
C356        C  0.39393798  0.87604049  0.31212947     0.07300
C357        C  0.42674630  0.84321234  0.27423435    -0.14800
H358        H  0.45465366  0.82530485  0.18689433     0.11300
H359        H  0.33542721  0.95779422  0.20385021     0.11300
H360        H  0.34300827  0.95007214  0.31110840     0.11300
H361        H  0.45207205  0.80967363  0.28951573     0.11300
C362        C  0.35148849  0.72476997  0.14872937    -0.14800
C363        C  0.38288053  0.69402736  0.10669454     0.07300
C364        C  0.41698881  0.72399049  0.06615471    -0.14800
C365        C  0.41656952  0.78242933  0.06675867    -0.14800
C366        C  0.38151213  0.81173699  0.10737933     0.07300
C367        C  0.35020404  0.78014892  0.14847646    -0.14800
H368        H  0.32420327  0.70495403  0.18107557     0.11300
H369        H  0.44295184  0.70289082  0.03379417     0.11300
H370        H  0.44289578  0.80387815  0.03538384     0.11300
H371        H  0.32230299  0.79930384  0.18087841     0.11300
C372        C  0.42938488  0.65605559  0.27191442    -0.14800
C373        C  0.39504706  0.62387708  0.30868302     0.07300
C374        C  0.36470057  0.58113556  0.27894264    -0.14800
C375        C  0.35832570  0.57954055  0.21559350    -0.14800
C376        C  0.38689412  0.61733899  0.17929936     0.07300
C377        C  0.42879286  0.64943386  0.20968301    -0.14800
H378        H  0.45674957  0.68758698  0.28856321     0.11300
H379        H  0.34036499  0.55230658  0.30485042     0.11300
H380        H  0.32974996  0.54963374  0.19693073     0.11300
H381        H  0.45690946  0.67573832  0.18487882     0.11300
C382        C  0.35611593  0.77672316  0.43632863    -0.14800
C383        C  0.39512768  0.80481423  0.40056484     0.07300
C384        C  0.44790649  0.77859912  0.39202491    -0.14800
C385        C  0.44814985  0.72191635  0.39053069    -0.14800
C386        C  0.39569468  0.69492714  0.39814493     0.07300
C387        C  0.35678737  0.72161528  0.43562570    -0.14800
H388        H  0.32095457  0.79615715  0.45836049     0.11300
H389        H  0.48587659  0.80114181  0.38096196     0.11300
H390        H  0.48661696  0.70008912  0.37935426     0.11300
H391        H  0.32252150  0.70101975  0.45785479     0.11300
C392        C  0.21296614  0.67103434  0.07130222    -0.14800
C393        C  0.18366102  0.62741773  0.09688582     0.07300
C394        C  0.21375737  0.57826486  0.09816780    -0.14800
C395        C  0.27420631  0.57817913  0.09885404    -0.14800
C396        C  0.30534104  0.62607752  0.09283771     0.07300
C397        C  0.27255628  0.66987974  0.06784172    -0.14800
H398        H  0.19087054  0.70789439  0.05899769     0.11300
H399        H  0.19093719  0.54257566  0.10984194     0.11300
H400        H  0.29729082  0.54216615  0.10735207     0.11300
H401        H  0.29189745  0.70626866  0.05106800     0.11300
C402        C  0.15567678  0.72296927  0.17438449    -0.14800
C403        C  0.11338628  0.69426277  0.14099407     0.07300
C404        C  0.06368632  0.72290472  0.12360691    -0.14800
C405        C  0.06326803  0.77936501  0.12486942    -0.14800
C406        C  0.11292549  0.80821901  0.14233153     0.07300
C407        C  0.15567683  0.77928694  0.17465747    -0.14800
H408        H  0.19204640  0.70200070  0.19466701     0.11300
H409        H  0.02521746  0.70241443  0.10892109     0.11300
H410        H  0.02412562  0.79961118  0.11199161     0.11300
H411        H  0.19199164  0.80011518  0.19518801     0.11300
C412        C  0.21180545  0.92729117  0.10742250    -0.14800
C413        C  0.18209364  0.87806826  0.10138121     0.07300
C414        C  0.21195142  0.83624765  0.07285769    -0.14800
C415        C  0.27152978  0.83824936  0.06932350    -0.14800
C416        C  0.30402666  0.88079610  0.09735898     0.07300
C417        C  0.27221769  0.92781558  0.10835305    -0.14800
H418        H  0.18917584  0.96166817  0.12456306     0.11300
H419        H  0.19029045  0.79986239  0.05819227     0.11300
H420        H  0.29127436  0.80301819  0.05014871     0.11300
H421        H  0.29389242  0.96338733  0.12210560     0.11300
C422        C  0.06554914  0.89396463  0.28899799    -0.14800
C423        C  0.11782049  0.89652036  0.32183593     0.07300
C424        C  0.16432277  0.91826166  0.29046537    -0.14800
C425        C  0.16722913  0.91030198  0.22891013    -0.14800
C426        C  0.11824122  0.89536128  0.19416075     0.07300
C427        C  0.06599084  0.89432790  0.22514517    -0.14800
H428        H  0.02650343  0.88437637  0.31195454     0.11300
H429        H  0.20332347  0.93125720  0.31336914     0.11300
H430        H  0.21018079  0.90992064  0.21257597     0.11300
H431        H  0.02711003  0.88729434  0.19979228     0.11300
C432        C  0.22248469  0.83092145  0.35668045    -0.14800
C433        C  0.19328694  0.86593246  0.39659504     0.07300
C434        C  0.22797697  0.90095339  0.43282949    -0.14800
C435        C  0.28766491  0.90291566  0.42611499    -0.14800
C436        C  0.31517806  0.86926217  0.38424777     0.07300
C437        C  0.28094180  0.83418731  0.34889909    -0.14800
H438        H  0.19953372  0.80413693  0.32616286     0.11300
H439        H  0.21134547  0.92836559  0.46570438     0.11300
H440        H  0.31170788  0.93093308  0.45386023     0.11300
H441        H  0.30033811  0.80726190  0.31632778     0.11300
C442        C  0.16742506  0.58219444  0.28556285    -0.14800
C443        C  0.12049472  0.60270940  0.31797960     0.07300
C444        C  0.06829073  0.60565372  0.28524957    -0.14800
C445        C  0.06863171  0.60700997  0.22146066    -0.14800
C446        C  0.12066782  0.60621471  0.18998317     0.07300
C447        C  0.16958611  0.58940154  0.22356904    -0.14800
H448        H  0.20665366  0.56911334  0.30792120     0.11300
H449        H  0.02922147  0.61457251  0.30856261     0.11300
H450        H  0.02964877  0.61498043  0.19666116     0.11300
H451        H  0.21188875  0.58722257  0.20565814     0.11300
C452        C  0.22984991  0.59466041  0.42723977    -0.14800
C453        C  0.19496002  0.63196542  0.39420564     0.07300
C454        C  0.22385248  0.66869613  0.35626526    -0.14800
C455        C  0.28214363  0.66573190  0.34784568    -0.14800
C456        C  0.31674608  0.62977403  0.38151516     0.07300
C457        C  0.28963529  0.59395581  0.42120456    -0.14800
H458        H  0.21327735  0.56386821  0.45603187     0.11300
H459        H  0.20082071  0.69672774  0.32736015     0.11300
H460        H  0.30122014  0.69381665  0.31645624     0.11300
H461        H  0.31389634  0.56454291  0.44692246     0.11300
C462        C  0.11186500  0.77769091  0.44196060    -0.14800
C463        C  0.10537584  0.80890681  0.38846081     0.07300
C464        C  0.09309383  0.77799535  0.33550699    -0.14800
C465        C  0.09381025  0.72081814  0.33476117    -0.14800
C466        C  0.10677770  0.68922543  0.38692485     0.07300
C467        C  0.11275219  0.71972304  0.44117164    -0.14800
H468        H  0.12103357  0.79830298  0.48407607     0.11300
H469        H  0.08984712  0.79664123  0.29174052     0.11300
H470        H  0.09104972  0.70293232  0.29050923     0.11300
H471        H  0.12288666  0.69866620  0.48265840     0.11300
O472        O  0.44301296  0.88130662  0.96655239    -0.81600
O473        O  0.04216844  0.59037976  0.92705376    -0.81600
O474        O  0.41502719  0.55138910  0.90802645    -0.81600
O475        O  0.11756402  0.94360568  0.96349851    -0.81600
O476        O  0.44560361  0.61980812  0.96246230    -0.81700
O477        O  0.04063423  0.90673182  0.93142078    -0.81600
O478        O  0.11887119  0.55738179  0.96402560    -0.81600
O479        O  0.41395407  0.94835124  0.90961425    -0.81600
C480        C  0.41469350  0.89900595  0.92079828     1.08100
C481        C  0.09535983  0.58963713  0.92678754     1.08000
C482        C  0.41665199  0.60110763  0.91759506     1.08100
C483        C  0.09376019  0.90857401  0.92966619     1.08000
O484        O  0.05015030  0.86630120  0.54607988    -0.81600
O485        O  0.46069794  0.58237911  0.58094364    -0.81700
O486        O  0.38056310  0.94425548  0.53471717    -0.81600
O487        O  0.07159640  0.55761281  0.58497430    -0.81600
O488        O  0.05336320  0.63593542  0.54102154    -0.81600
O489        O  0.45925056  0.92380178  0.58393171    -0.81600
O490        O  0.07228850  0.94571476  0.58582920    -0.81600
O491        O  0.38175947  0.56065556  0.53281333    -0.81600
Co492      Co  0.50526574  0.92341606  0.50901985     1.51500
Co493      Co  0.00666437  0.57831472  0.00610619     1.51700
Co494      Co  0.40489153  0.00123840  0.47265814     1.51600
Co495      Co  0.08429785  0.50065546  0.02029130     1.51500
O496        O  0.49304492  0.00072486  0.98626961    -1.43500
C497        C  0.07907949  0.89403357  0.58509352     1.08000
C498        C  0.40724701  0.58964505  0.57281974     1.08100
C499        C  0.40585750  0.91646985  0.57588045     1.08100
C500        C  0.08058658  0.60886254  0.58192734     1.08000
C501        C  0.12837004  0.62744948  0.88291496    -0.03900
C502        C  0.12643518  0.87060264  0.88575967    -0.01300
C503        C  0.12241924  0.86918961  0.63027275    -0.03900
C504        C  0.12409910  0.63382315  0.62683590    -0.03900
C505        C  0.38222946  0.63720132  0.87646113    -0.03900
C506        C  0.37202081  0.63080922  0.61139697    -0.03900
C507        C  0.37100659  0.87527648  0.61455392    -0.03900
C508        C  0.38076087  0.86245299  0.87949404    -0.03900
C509        C  0.42708995  0.85077694  0.71272350    -0.14800
C510        C  0.38776667  0.88627642  0.68315772     0.07300
C511        C  0.36290298  0.92561109  0.72087415    -0.14800
C512        C  0.36753224  0.92129517  0.78416211    -0.14800
C513        C  0.39408345  0.87575188  0.81226294     0.07300
C514        C  0.42615216  0.84213319  0.77451775    -0.14800
H515        H  0.45415541  0.82370314  0.68740651     0.11300
H516        H  0.33911752  0.95936072  0.70361389     0.11300
H517        H  0.34512978  0.95095631  0.81109086     0.11300
H518        H  0.45043878  0.80793985  0.78987859     0.11300
C519        C  0.35146985  0.72489796  0.64827870    -0.14800
C520        C  0.38312412  0.69413324  0.60649094     0.07300
C521        C  0.41742956  0.72408225  0.56611540    -0.14800
C522        C  0.41700492  0.78253276  0.56669883    -0.14800
C523        C  0.38172344  0.81184348  0.60710831     0.07300
C524        C  0.35012023  0.78024259  0.64794310    -0.14800
H525        H  0.32410529  0.70509773  0.68056658     0.11300
H526        H  0.44361848  0.70296735  0.53396559     0.11300
H527        H  0.44357726  0.80398040  0.53555067     0.11300
H528        H  0.32211597  0.79939303  0.68025349     0.11300
C529        C  0.42899942  0.65713415  0.77228623    -0.14800
C530        C  0.39521483  0.62428725  0.80890572     0.07300
C531        C  0.36589173  0.58099031  0.77908704    -0.14800
C532        C  0.35986914  0.57923182  0.71570728    -0.14800
C533        C  0.38753484  0.61773400  0.67951907     0.07300
C534        C  0.42876631  0.65051055  0.71006719    -0.14800
H535        H  0.45563917  0.68917990  0.78904418     0.11300
H536        H  0.34206435  0.55173318  0.80493691     0.11300
H537        H  0.33225506  0.54860059  0.69694742     0.11300
H538        H  0.45662123  0.67719504  0.68542500     0.11300
C539        C  0.35505165  0.77680027  0.93623718    -0.14800
C540        C  0.39447653  0.80486280  0.90093178     0.07300
C541        C  0.44735250  0.77864201  0.89293263    -0.14800
C542        C  0.44763197  0.72196994  0.89152372    -0.14800
C543        C  0.39511122  0.69496333  0.89864540     0.07300
C544        C  0.35573804  0.72167627  0.93558580    -0.14800
H545        H  0.31963488  0.79624964  0.95784973     0.11300
H546        H  0.48532386  0.80115048  0.88173531     0.11300
H547        H  0.48612622  0.70017670  0.88030338     0.11300
H548        H  0.32118857  0.70110688  0.95738803     0.11300
C549        C  0.21324665  0.67070506  0.57129418    -0.14800
C550        C  0.18399456  0.62720531  0.59719805     0.07300
C551        C  0.21421782  0.57810675  0.59898541    -0.14800
C552        C  0.27465438  0.57816131  0.59973979    -0.14800
C553        C  0.30572920  0.62599593  0.59317037     0.07300
C554        C  0.27283687  0.66958689  0.56780157    -0.14800
H555        H  0.19113726  0.70753456  0.55880662     0.11300
H556        H  0.19152958  0.54248932  0.61114683     0.11300
H557        H  0.29779118  0.54220635  0.60865679     0.11300
H558        H  0.29208013  0.70594077  0.55080027     0.11300
C559        C  0.15607593  0.72294221  0.67429078    -0.14800
C560        C  0.11373825  0.69422345  0.64098003     0.07300
C561        C  0.06404101  0.72286831  0.62360599    -0.14800
C562        C  0.06363503  0.77932909  0.62483580    -0.14800
C563        C  0.11330764  0.80819162  0.64222850     0.07300
C564        C  0.15610261  0.77926660  0.67449786    -0.14800
H565        H  0.19242772  0.70196339  0.69459914     0.11300
H566        H  0.02554475  0.70236046  0.60902911     0.11300
H567        H  0.02446338  0.79958576  0.61207767     0.11300
H568        H  0.19240708  0.80011354  0.69502757     0.11300
C569        C  0.21214330  0.92753313  0.60835678    -0.14800
C570        C  0.18240174  0.87836461  0.60175936     0.07300
C571        C  0.21228523  0.83676568  0.57287748    -0.14800
C572        C  0.27185154  0.83887945  0.56926210    -0.14800
C573        C  0.30441039  0.88115160  0.59777747     0.07300
C574        C  0.27257425  0.92804580  0.60955184    -0.14800
H575        H  0.18953372  0.96181785  0.62581183     0.11300
H576        H  0.19068059  0.80040437  0.55796939     0.11300
H577        H  0.29153714  0.80377468  0.54975812     0.11300
H578        H  0.29404757  0.96350636  0.62399979     0.11300
C579        C  0.06502462  0.89357443  0.78893748    -0.14800
C580        C  0.11719468  0.89656504  0.82192936     0.07300
C581        C  0.16354429  0.91871924  0.79072002    -0.14800
C582        C  0.16680347  0.91044483  0.72926982    -0.14800
C583        C  0.11804596  0.89521980  0.69430739     0.07300
C584        C  0.06567181  0.89384416  0.72507959    -0.14800
H585        H  0.02601087  0.88361046  0.81176629     0.11300
H586        H  0.20235244  0.93203741  0.81376370     0.11300
H587        H  0.20987136  0.91002996  0.71328441     0.11300
H588        H  0.02693372  0.88637281  0.69960267     0.11300
C589        C  0.22215782  0.83124208  0.85623253    -0.14800
C590        C  0.19295576  0.86603076  0.89638708     0.07300
C591        C  0.22764818  0.90101442  0.93266862    -0.14800
C592        C  0.28732208  0.90311063  0.92585382    -0.14800
C593        C  0.31485565  0.86959424  0.88386593     0.07300
C594        C  0.28061547  0.83464062  0.84835640    -0.14800
H595        H  0.19919334  0.80448656  0.82568991     0.11300
H596        H  0.21102961  0.92825998  0.96571673     0.11300
H597        H  0.31136503  0.93100770  0.95375788     0.11300
H598        H  0.30001980  0.80777791  0.81572814     0.11300
C599        C  0.16684241  0.58169503  0.78578454    -0.14800
C600        C  0.12001110  0.60254089  0.81805464     0.07300
C601        C  0.06788743  0.60580347  0.78520067    -0.14800
C602        C  0.06841697  0.60725843  0.72141453    -0.14800
C603        C  0.12057622  0.60623198  0.69012567     0.07300
C604        C  0.16929719  0.58915616  0.72387446    -0.14800
H605        H  0.20591225  0.56834915  0.80826357     0.11300
H606        H  0.02882261  0.61500900  0.80840203     0.11300
H607        H  0.02953927  0.61558484  0.69652613     0.11300
H608        H  0.21170592  0.58697211  0.70625568     0.11300
C609        C  0.22958919  0.59454645  0.92712857    -0.14800
C610        C  0.19468838  0.63181076  0.89404152     0.07300
C611        C  0.22356913  0.66838210  0.85590272    -0.14800
C612        C  0.28186553  0.66536806  0.84744426    -0.14800
C613        C  0.31648576  0.62954462  0.88127948     0.07300
C614        C  0.28936940  0.59378763  0.92103320    -0.14800
H615        H  0.21303459  0.56384988  0.95605536     0.11300
H616        H  0.20051526  0.69636678  0.82695582     0.11300
H617        H  0.30094127  0.69342309  0.81602307     0.11300
H618        H  0.31363787  0.56446503  0.94687192     0.11300
C619        C  0.11165661  0.77762782  0.94196656    -0.14800
C620        C  0.10511189  0.80884357  0.88847464     0.07300
C621        C  0.09286973  0.77791739  0.83552275    -0.14800
C622        C  0.09358317  0.72075320  0.83477643    -0.14800
C623        C  0.10654595  0.68916104  0.88692957     0.07300
C624        C  0.11256409  0.71965707  0.94117383    -0.14800
H625        H  0.12082203  0.79824569  0.98407859     0.11300
H626        H  0.08972410  0.79651629  0.79173206     0.11300
H627        H  0.09090246  0.70289953  0.79050878     0.11300
H628        H  0.12272276  0.69859741  0.98265425     0.11300
O629        O  0.94478018  0.38053715  0.46378602    -0.81600
O630        O  0.54227777  0.09017799  0.42440761    -0.81600
O631        O  0.91476018  0.05103481  0.40605050    -0.81600
O632        O  0.61837618  0.44279769  0.46459782    -0.81600
O633        O  0.94573794  0.12006795  0.45937371    -0.81700
O634        O  0.54159773  0.40941512  0.42804881    -0.81600
O635        O  0.61879346  0.05828101  0.46277285    -0.81600
O636        O  0.91361826  0.44849648  0.40913909    -0.81600
C637        C  0.91559727  0.39880884  0.41895994     1.08100
C638        C  0.59550203  0.09012531  0.42484476     1.08000
C639        C  0.91661549  0.10091282  0.41481805     1.08100
C640        C  0.59482214  0.40990653  0.42795167     1.08000
O641        O  0.55317341  0.36635165  0.04247139    -0.81600
O642        O  0.96016688  0.08369021  0.07853225    -0.81700
O643        O  0.88100557  0.44283613  0.03396217    -0.81600
O644        O  0.57067842  0.05816205  0.08357580    -0.81600
O645        O  0.55380345  0.13610753  0.03846588    -0.81600
O646        O  0.95988287  0.42025578  0.08171078    -0.81600
O647        O  0.57108286  0.44498063  0.08595934    -0.81600
O648        O  0.88150559  0.06157371  0.03024331    -0.81600
Co649      Co  0.00585601  0.42275873  0.00663457     1.51500
Co650      Co  0.50653517  0.07883604  0.50369569     1.51700
Co651      Co  0.90488451  0.50080838  0.97358301     1.51600
Co652      Co  0.58430544  0.00124442  0.51920531     1.51500
O653        O  0.99333535  0.50054081  0.48711886    -1.43500
C654        C  0.57998218  0.39370190  0.08346960     1.08000
C655        C  0.90666106  0.09044143  0.07030984     1.08100
C656        C  0.90627003  0.41397923  0.07407244     1.08100
C657        C  0.58028604  0.10921197  0.08004973     1.08000
C658        C  0.62885166  0.12872923  0.38161178    -0.03900
C659        C  0.62794596  0.37157796  0.38440103    -0.01300
C660        C  0.62347258  0.36884325  0.12837647    -0.03900
C661        C  0.62403333  0.13404050  0.12471975    -0.03900
C662        C  0.88189770  0.13677614  0.37356859    -0.03900
C663        C  0.87065649  0.13029242  0.10912422    -0.03900
C664        C  0.87070332  0.37368687  0.11292069    -0.03900
C665        C  0.88151313  0.36236604  0.37769898    -0.03900
C666        C  0.92946175  0.35848972  0.21030000    -0.14800
C667        C  0.88500701  0.38788032  0.18085314     0.07300
C668        C  0.85158770  0.42091083  0.21850156    -0.14800
C669        C  0.85751252  0.41790343  0.28161047    -0.14800
C670        C  0.89203929  0.37743676  0.31003861     0.07300
C671        C  0.93022689  0.35007044  0.27233787    -0.14800
H672        H  0.95930083  0.33471240  0.18440701     0.11300
H673        H  0.81954599  0.44822348  0.20137316     0.11300
H674        H  0.83013913  0.44380033  0.30813148     0.11300
H675        H  0.96087295  0.32095470  0.28788323     0.11300
C676        C  0.85344148  0.22384223  0.15028872    -0.14800
C677        C  0.88327759  0.19333037  0.10686181     0.07300
C678        C  0.91714441  0.22315067  0.06608302    -0.14800
C679        C  0.91718296  0.28142848  0.06701466    -0.14800
C680        C  0.88328128  0.31061837  0.10863905     0.07300
C681        C  0.85343200  0.27931974  0.15111509    -0.14800
H682        H  0.82625083  0.20399949  0.18267258     0.11300
H683        H  0.94195085  0.20203652  0.03272323     0.11300
H684        H  0.94224962  0.30294944  0.03450357     0.11300
H685        H  0.82629574  0.29858298  0.18412546     0.11300
C686        C  0.93060187  0.14960542  0.26880633    -0.14800
C687        C  0.89210612  0.12209158  0.30565737     0.07300
C688        C  0.85657497  0.08290907  0.27590951    -0.14800
C689        C  0.85035022  0.08154153  0.21264249    -0.14800
C690        C  0.88446287  0.11472884  0.17639715     0.07300
C691        C  0.92948170  0.14266899  0.20657643    -0.14800
H692        H  0.96148952  0.17805646  0.28528367     0.11300
H693        H  0.82876156  0.05693803  0.30157775     0.11300
H694        H  0.81766201  0.05563997  0.19370538     0.11300
H695        H  0.95937751  0.16676899  0.18132668     0.11300
C696        C  0.86040312  0.27644351  0.43604740    -0.14800
C697        C  0.89680595  0.30449439  0.39721984     0.07300
C698        C  0.94877326  0.27810126  0.38552279    -0.14800
C699        C  0.94861282  0.22145042  0.38351549    -0.14800
C700        C  0.89660227  0.19469662  0.39392489     0.07300
C701        C  0.86066994  0.22125382  0.43481321    -0.14800
H702        H  0.82754732  0.29624088  0.46146452     0.11300
H703        H  0.98706186  0.30056984  0.37601326     0.11300
H704        H  0.98699659  0.19938615  0.37300837     0.11300
H705        H  0.82844131  0.20039258  0.45998694     0.11300
C706        C  0.71295495  0.17222915  0.07055831    -0.14800
C707        C  0.68354411  0.12799187  0.09435676     0.07300
C708        C  0.71306349  0.07844742  0.09240533    -0.14800
C709        C  0.77355064  0.07789817  0.09159181    -0.14800
C710        C  0.80481473  0.12623922  0.08957381     0.07300
C711        C  0.77246550  0.17116162  0.06723277    -0.14800
H712        H  0.69069116  0.20899578  0.05902479     0.11300
H713        H  0.68976528  0.04200914  0.09992778     0.11300
H714        H  0.79660302  0.04099261  0.09553798     0.11300
H715        H  0.79221337  0.20771965  0.05180592     0.11300
C716        C  0.65481952  0.22282427  0.17423608    -0.14800
C717        C  0.61308334  0.19428953  0.13981470     0.07300
C718        C  0.56378210  0.22316510  0.12154402    -0.14800
C719        C  0.56351621  0.27965766  0.12296275    -0.14800
C720        C  0.61282843  0.30831054  0.14185129     0.07300
C721        C  0.65477083  0.27916283  0.17511185    -0.14800
H722        H  0.69099736  0.20181319  0.19481404     0.11300
H723        H  0.52563910  0.20287449  0.10564673     0.11300
H724        H  0.52496606  0.30012834  0.10855668     0.11300
H725        H  0.69089698  0.29979170  0.19626577     0.11300
C726        C  0.71281815  0.42521999  0.10106201    -0.14800
C727        C  0.68314041  0.37589118  0.09868847     0.07300
C728        C  0.71275748  0.33269617  0.07258779    -0.14800
C729        C  0.77239035  0.33394944  0.06950256    -0.14800
C730        C  0.80469154  0.37799685  0.09417471     0.07300
C731        C  0.77319715  0.42577503  0.10038551    -0.14800
H732        H  0.69000544  0.46036261  0.11515716     0.11300
H733        H  0.69055701  0.29641686  0.05916224     0.11300
H734        H  0.79231374  0.29799575  0.05251644     0.11300
H735        H  0.79599964  0.46176102  0.10994785     0.11300
C736        C  0.56884870  0.39724488  0.28705887    -0.14800
C737        C  0.62112248  0.39712441  0.31983252     0.07300
C738        C  0.66889183  0.41638263  0.28808986    -0.14800
C739        C  0.67075766  0.41008609  0.22599254    -0.14800
C740        C  0.62103291  0.39641856  0.19185762     0.07300
C741        C  0.56907135  0.39774245  0.22323986    -0.14800
H742        H  0.52933280  0.39040429  0.31022575     0.11300
H743        H  0.70861501  0.42758656  0.31073618     0.11300
H744        H  0.71318942  0.41013132  0.20815549     0.11300
H745        H  0.52974189  0.39350345  0.19804334     0.11300
C746        C  0.72295331  0.32916916  0.35871383    -0.14800
C747        C  0.69394101  0.36588895  0.39684548     0.07300
C748        C  0.72876322  0.40171254  0.43190495    -0.14800
C749        C  0.78850129  0.40250152  0.42590204    -0.14800
C750        C  0.81572264  0.36763167  0.38509085     0.07300
C751        C  0.78136118  0.33163188  0.35114944    -0.14800
H752        H  0.69997153  0.30202904  0.32865425     0.11300
H753        H  0.71224689  0.43133174  0.46236937     0.11300
H754        H  0.81260811  0.43156929  0.45217785     0.11300
H755        H  0.80054904  0.30412118  0.31903760     0.11300
C756        C  0.67060743  0.08591504  0.28349404    -0.14800
C757        C  0.62261442  0.10439590  0.31607360     0.07300
C758        C  0.57036767  0.10476585  0.28340125    -0.14800
C759        C  0.57035367  0.10500443  0.21960782    -0.14800
C760        C  0.62205000  0.10578187  0.18771617     0.07300
C761        C  0.67179674  0.09110454  0.22102987    -0.14800
H762        H  0.71054030  0.07471342  0.30565359     0.11300
H763        H  0.53094939  0.11147825  0.30684439     0.11300
H764        H  0.53096972  0.11007961  0.19479291     0.11300
H765        H  0.71363037  0.08908158  0.20178013     0.11300
C766        C  0.72949695  0.09573980  0.42645139    -0.14800
C767        C  0.69472290  0.13384369  0.39447817     0.07300
C768        C  0.72370401  0.17176123  0.35809601    -0.14800
C769        C  0.78180297  0.16847542  0.34907245    -0.14800
C770        C  0.81624728  0.13124322  0.38114215     0.07300
C771        C  0.78922210  0.09498455  0.42031055    -0.14800
H772        H  0.71285116  0.06401469  0.45389645     0.11300
H773        H  0.70082800  0.20048485  0.32995010     0.11300
H774        H  0.80084263  0.19678225  0.31790278     0.11300
H775        H  0.81337559  0.06457908  0.44464118     0.11300
C776        C  0.61188980  0.27882063  0.44056149    -0.14800
C777        C  0.60541746  0.31010189  0.38707414     0.07300
C778        C  0.59241129  0.27923666  0.33420956    -0.14800
C779        C  0.59278358  0.22190424  0.33351437    -0.14800
C780        C  0.60615128  0.19028772  0.38563478     0.07300
C781        C  0.61236917  0.22085646  0.43983744    -0.14800
H782        H  0.62192538  0.29932788  0.48254926     0.11300
H783        H  0.58832200  0.29812757  0.29060838     0.11300
H784        H  0.58892535  0.20372888  0.28944394     0.11300
H785        H  0.62293612  0.19986692  0.48127392     0.11300
O786        O  0.94476668  0.38045027  0.96369141    -0.81600
O787        O  0.54213178  0.09011047  0.92436563    -0.81600
O788        O  0.91463067  0.05102208  0.90609958    -0.81600
O789        O  0.61828694  0.44275202  0.96461228    -0.81600
O790        O  0.94560349  0.12010819  0.95932505    -0.81700
O791        O  0.54154972  0.40947267  0.92785833    -0.81600
O792        O  0.61862790  0.05817222  0.96274472    -0.81600
O793        O  0.91360306  0.44843187  0.90907196    -0.81600
C794        C  0.91556770  0.39873866  0.91888067     1.08100
C795        C  0.59535268  0.09001922  0.92480272     1.08000
C796        C  0.91647254  0.10090177  0.91479092     1.08100
C797        C  0.59477681  0.40990210  0.92785957     1.08000
O798        O  0.55293742  0.36621962  0.54254268    -0.81600
O799        O  0.96014352  0.08359568  0.57852818    -0.81700
O800        O  0.88100129  0.44288815  0.53399163    -0.81600
O801        O  0.57061099  0.05805133  0.58351743    -0.81600
O802        O  0.55381408  0.13605602  0.53852031    -0.81600
O803        O  0.95981912  0.42030586  0.58181431    -0.81600
O804        O  0.57118054  0.44486220  0.58591053    -0.81600
O805        O  0.88156977  0.06148188  0.53011071    -0.81600
Co806      Co  0.00588168  0.42278243  0.50677500     1.51500
Co807      Co  0.50644097  0.07887551  0.00367876     1.51700
Co808      Co  0.90500314  0.50086817  0.47365419     1.51600
Co809      Co  0.58411931  0.00122320  0.01927803     1.51500
O810        O  0.99320211  0.50052816  0.98710076    -1.43500
C811        C  0.57991134  0.39354046  0.58343946     1.08000
C812        C  0.90663401  0.09032549  0.57024191     1.08100
C813        C  0.90621363  0.41398146  0.57408998     1.08100
C814        C  0.58024219  0.10908857  0.58007485     1.08000
C815        C  0.62871339  0.12861612  0.88158158    -0.03900
C816        C  0.62794257  0.37147449  0.88438568    -0.01300
C817        C  0.62341676  0.36859104  0.62825615    -0.03900
C818        C  0.62395856  0.13381889  0.62477173    -0.03900
C819        C  0.88169788  0.13668242  0.87348481    -0.03900
C820        C  0.87049207  0.13010657  0.60902439    -0.03900
C821        C  0.87058029  0.37362767  0.61285876    -0.03900
C822        C  0.88144390  0.36232109  0.87762469    -0.03900
C823        C  0.92942743  0.35893510  0.71019593    -0.14800
C824        C  0.88470363  0.38794643  0.68075863     0.07300
C825        C  0.85089925  0.42062867  0.71837620    -0.14800
C826        C  0.85681600  0.41764960  0.78148297    -0.14800
C827        C  0.89176668  0.37750251  0.80993485     0.07300
C828        C  0.93030945  0.35057197  0.77225065    -0.14800
H829        H  0.95941475  0.33535585  0.68427269     0.11300
H830        H  0.81856392  0.44762335  0.70118974     0.11300
H831        H  0.82918510  0.44332020  0.80797091     0.11300
H832        H  0.96130536  0.32180653  0.78781978     0.11300
C833        C  0.85344702  0.22370627  0.65042068    -0.14800
C834        C  0.88318388  0.19318006  0.60692364     0.07300
C835        C  0.91699550  0.22302905  0.56610711    -0.14800
C836        C  0.91705291  0.28131640  0.56704082    -0.14800
C837        C  0.88326876  0.31053575  0.60874789     0.07300
C838        C  0.85350668  0.27921961  0.65129549    -0.14800
H839        H  0.82627045  0.20386721  0.68281655     0.11300
H840        H  0.94172440  0.20192506  0.53267839     0.11300
H841        H  0.94202073  0.30282916  0.53443610     0.11300
H842        H  0.82642003  0.29848476  0.68434653     0.11300
C843        C  0.93052746  0.14891150  0.76867865    -0.14800
C844        C  0.89169203  0.12184505  0.80554255     0.07300
C845        C  0.85570084  0.08303033  0.77577760    -0.14800
C846        C  0.84951717  0.08166868  0.71251212    -0.14800
C847        C  0.88408324  0.11441883  0.67626710     0.07300
C848        C  0.92933279  0.14199024  0.70643975    -0.14800
H849        H  0.96171008  0.17706494  0.78514588     0.11300
H850        H  0.82758294  0.05733175  0.80141001     0.11300
H851        H  0.81653650  0.05610230  0.69355402     0.11300
H852        H  0.95936940  0.16589853  0.68115850     0.11300
C853        C  0.86065505  0.27639151  0.93606915    -0.14800
C854        C  0.89683712  0.30443097  0.89700583     0.07300
C855        C  0.94870109  0.27799867  0.88499685    -0.14800
C856        C  0.94847665  0.22135128  0.88295947    -0.14800
C857        C  0.89650233  0.19463118  0.89362561     0.07300
C858        C  0.86081902  0.22120276  0.93474489    -0.14800
H859        H  0.82799082  0.29621883  0.96171997     0.11300
H860        H  0.98702318  0.30043114  0.87558325     0.11300
H861        H  0.98685201  0.19926077  0.87252462     0.11300
H862        H  0.82871296  0.20035096  0.96008987     0.11300
C863        C  0.71285473  0.17209126  0.57069817    -0.14800
C864        C  0.68345525  0.12780456  0.59437254     0.07300
C865        C  0.71290353  0.07823123  0.59206264    -0.14800
C866        C  0.77340950  0.07761031  0.59105913    -0.14800
C867        C  0.80468665  0.12601799  0.58934874     0.07300
C868        C  0.77234922  0.17101751  0.56727111    -0.14800
H869        H  0.69058058  0.20886522  0.55929292     0.11300
H870        H  0.68954294  0.04173937  0.59916760     0.11300
H871        H  0.79637669  0.04060119  0.59459782     0.11300
H872        H  0.79210253  0.20760188  0.55194394     0.11300
C873        C  0.65465851  0.22259058  0.67434666    -0.14800
C874        C  0.61294107  0.19404469  0.63993483     0.07300
C875        C  0.56363470  0.22291763  0.62164348    -0.14800
C876        C  0.56340250  0.27941451  0.62293701    -0.14800
C877        C  0.61273177  0.30806613  0.64177666     0.07300
C878        C  0.65465213  0.27892796  0.67509425    -0.14800
H879        H  0.69082481  0.20158751  0.69495773     0.11300
H880        H  0.52546982  0.20262426  0.60580106     0.11300
H881        H  0.52485908  0.29987623  0.60849873     0.11300
H882        H  0.69080135  0.29954747  0.69620702     0.11300
C883        C  0.71263035  0.42499945  0.60062613    -0.14800
C884        C  0.68304618  0.37560009  0.59848107     0.07300
C885        C  0.71273725  0.33237454  0.57256484    -0.14800
C886        C  0.77236647  0.33368643  0.56948544    -0.14800
C887        C  0.80459117  0.37785254  0.59398465     0.07300
C888        C  0.77299527  0.42556978  0.59990756    -0.14800
H889        H  0.68969434  0.46016026  0.61437819     0.11300
H890        H  0.69058256  0.29605744  0.55923442     0.11300
H891        H  0.79236306  0.29773053  0.55261252     0.11300
H892        H  0.79579998  0.46169621  0.60927426     0.11300
C893        C  0.56905183  0.39735175  0.78697891    -0.14800
C894        C  0.62133374  0.39693186  0.81973419     0.07300
C895        C  0.66924341  0.41580379  0.78791165    -0.14800
C896        C  0.67100016  0.40951868  0.72579985    -0.14800
C897        C  0.62115299  0.39617943  0.69172645     0.07300
C898        C  0.56923087  0.39781961  0.72315830    -0.14800
H899        H  0.52949152  0.39086893  0.81018222     0.11300
H900        H  0.70906393  0.42678867  0.81048928     0.11300
H901        H  0.71338682  0.40933977  0.70782657     0.11300
H902        H  0.52984268  0.39391636  0.69799874     0.11300
C903        C  0.72292149  0.32882309  0.85909911    -0.14800
C904        C  0.69389558  0.36570400  0.89702879     0.07300
C905        C  0.72871029  0.40164035  0.93195421    -0.14800
C906        C  0.78845371  0.40240368  0.92596618    -0.14800
C907        C  0.81566481  0.36746523  0.88522015     0.07300
C908        C  0.78130714  0.33133883  0.85144384    -0.14800
H909        H  0.69996097  0.30158167  0.82914131     0.11300
H910        H  0.71217931  0.43138360  0.96226270     0.11300
H911        H  0.81256115  0.43156281  0.95211739     0.11300
H912        H  0.80048482  0.30378847  0.81936660     0.11300
C913        C  0.67060574  0.08579941  0.78348782    -0.14800
C914        C  0.62257217  0.10424759  0.81604753     0.07300
C915        C  0.57032953  0.10445174  0.78338626    -0.14800
C916        C  0.57030444  0.10459601  0.71959665    -0.14800
C917        C  0.62199266  0.10546315  0.68770274     0.07300
C918        C  0.67175617  0.09083639  0.72099346    -0.14800
H919        H  0.71055656  0.07468662  0.80566363     0.11300
H920        H  0.53089918  0.11101148  0.80684421     0.11300
H921        H  0.53090631  0.10948139  0.69477311     0.11300
H922        H  0.71354608  0.08874747  0.70164672     0.11300
C923        C  0.72933439  0.09573072  0.92658401    -0.14800
C924        C  0.69455367  0.13377105  0.89452112     0.07300
C925        C  0.72351763  0.17170380  0.85815726    -0.14800
C926        C  0.78161711  0.16848392  0.84921136    -0.14800
C927        C  0.81606769  0.13125350  0.88127348     0.07300
C928        C  0.78906457  0.09501222  0.92047841    -0.14800
H929        H  0.71269670  0.06402453  0.95406286     0.11300
H930        H  0.70063582  0.20036366  0.82993676     0.11300
H931        H  0.80063927  0.19676864  0.81800580     0.11300
H932        H  0.81323385  0.06462416  0.94482085     0.11300
C933        C  0.61173837  0.27871466  0.94051362    -0.14800
C934        C  0.60530295  0.31001294  0.88703336     0.07300
C935        C  0.59227581  0.27914723  0.83415747    -0.14800
C936        C  0.59261007  0.22179575  0.83345866    -0.14800
C937        C  0.60597918  0.19017608  0.88557980     0.07300
C938        C  0.61220232  0.22075045  0.93977937    -0.14800
H939        H  0.62180264  0.29920333  0.98250607     0.11300
H940        H  0.58814444  0.29806236  0.79056913     0.11300
H941        H  0.58868321  0.20358304  0.78940643     0.11300
H942        H  0.62279481  0.19976377  0.98121053     0.11300
O943        O  0.94333025  0.88132881  0.46657679    -0.81600
O944        O  0.54243784  0.59035624  0.42699107    -0.81600
O945        O  0.91525917  0.55138008  0.40804346    -0.81600
O946        O  0.61788262  0.94369605  0.46338443    -0.81600
O947        O  0.94585418  0.61983521  0.46240708    -0.81700
O948        O  0.54100372  0.90666370  0.43138719    -0.81600
O949        O  0.61910279  0.55737436  0.46405517    -0.81600
O950        O  0.91419515  0.94833369  0.40959802    -0.81600
C951        C  0.91502477  0.89898957  0.42078902     1.08100
C952        C  0.59563531  0.58961684  0.42675657     1.08000
C953        C  0.91693206  0.60109725  0.41752435     1.08100
C954        C  0.59412848  0.90859415  0.42960517     1.08000
O955        O  0.54991035  0.86633133  0.04609043    -0.81600
O956        O  0.96038915  0.58231483  0.08093758    -0.81700
O957        O  0.88027158  0.94428441  0.03480152    -0.81600
O958        O  0.57137137  0.55767425  0.08495011    -0.81600
O959        O  0.55302353  0.63597894  0.04101533    -0.81600
O960        O  0.95891721  0.92368853  0.08400091    -0.81600
O961        O  0.57194968  0.94574409  0.08589371    -0.81600
O962        O  0.88152640  0.56057234  0.03269134    -0.81600
Co963      Co  0.00495403  0.92342401  0.00909232     1.51500
Co964      Co  0.50690676  0.57833929  0.50607210     1.51700
Co965      Co  0.90469016  0.00129960  0.97281462     1.51600
Co966      Co  0.58444822  0.50062097  0.52030523     1.51500
O967        O  0.99323944  0.00073226  0.48620520    -1.43500
C968        C  0.57880721  0.89407126  0.08512258     1.08000
C969        C  0.90694141  0.58957769  0.07272727     1.08100
C970        C  0.90551989  0.91638191  0.07589764     1.08100
C971        C  0.58031379  0.60893308  0.08188818     1.08000
C972        C  0.62870515  0.62749295  0.38293236    -0.03900
C973        C  0.62686264  0.87057869  0.38578316    -0.01300
C974        C  0.62224318  0.86921700  0.13018330    -0.03900
C975        C  0.62391085  0.63394338  0.12667246    -0.03900
C976        C  0.88251247  0.63711402  0.37631158    -0.03900
C977        C  0.87162524  0.63070102  0.11127597    -0.03900
C978        C  0.87058648  0.87517343  0.11451016    -0.03900
C979        C  0.88112321  0.86241208  0.37950110    -0.03900
C980        C  0.92720001  0.85172937  0.21247947    -0.14800
C981        C  0.88706664  0.88649439  0.18307322     0.07300
C982        C  0.86106696  0.92504308  0.22093662    -0.14800
C983        C  0.86626630  0.92095741  0.28417879    -0.14800
C984        C  0.89400470  0.87599650  0.31220218     0.07300
C985        C  0.92671985  0.84308102  0.27431031    -0.14800
H986        H  0.95460023  0.82510985  0.18698373     0.11300
H987        H  0.83582797  0.95795279  0.20390610     0.11300
H988        H  0.84328308  0.95015425  0.31118370     0.11300
H989        H  0.95194647  0.80947475  0.28958882     0.11300
C990        C  0.85149524  0.72476431  0.14871515    -0.14800
C991        C  0.88290965  0.69402693  0.10669350     0.07300
C992        C  0.91700871  0.72399954  0.06615322    -0.14800
C993        C  0.91658417  0.78243960  0.06676707    -0.14800
C994        C  0.88152518  0.81174221  0.10739154     0.07300
C995        C  0.85019401  0.78014276  0.14845993    -0.14800
H996        H  0.82421035  0.70494216  0.18105732     0.11300
H997        H  0.94297651  0.70290645  0.03379176     0.11300
H998        H  0.94291846  0.80389311  0.03540476     0.11300
H999        H  0.82228739  0.79929126  0.18086143     0.11300
C1000       C  0.92937403  0.65610633  0.27194113    -0.14800
C1001       C  0.89508071  0.62387843  0.30869975     0.07300
C1002       C  0.86480487  0.58109671  0.27895465    -0.14800
C1003       C  0.85844904  0.57949304  0.21560330    -0.14800
C1004       C  0.88694983  0.61734628  0.17931608     0.07300
C1005       C  0.92880244  0.64948702  0.20971161    -0.14800
H1006       H  0.95668726  0.68767470  0.28859846     0.11300
H1007       H  0.84050876  0.55223448  0.30485866     0.11300
H1008       H  0.82993983  0.54953416  0.19693966     0.11300
H1009       H  0.95690150  0.67581766  0.18492052     0.11300
C1010       C  0.85609079  0.77670227  0.43636545    -0.14800
C1011       C  0.89514236  0.80480320  0.40066220     0.07300
C1012       C  0.94792005  0.77858030  0.39214483    -0.14800
C1013       C  0.94814798  0.72189712  0.39061099    -0.14800
C1014       C  0.89568180  0.69491033  0.39817417     0.07300
C1015       C  0.85674175  0.72159502  0.43561921    -0.14800
H1016       H  0.82090417  0.79612886  0.45835880     0.11300
H1017       H  0.98588908  0.80111928  0.38106933     0.11300
H1018       H  0.98661083  0.70006940  0.37941831     0.11300
H1019       H  0.82243843  0.70100337  0.45778535     0.11300
C1020       C  0.71302406  0.67101276  0.07121417    -0.14800
C1021       C  0.68370547  0.62741873  0.09683455     0.07300
C1022       C  0.71380414  0.57826741  0.09821244    -0.14800
C1023       C  0.77425210  0.57817948  0.09891851    -0.14800
C1024       C  0.80538881  0.62606911  0.09284687     0.07300
C1025       C  0.77261610  0.66985260  0.06779085    -0.14800
H1026       H  0.69094647  0.70787974  0.05888632     0.11300
H1027       H  0.69099430  0.54259765  0.10998840     0.11300
H1028       H  0.79732877  0.54218140  0.10748566     0.11300
H1029       H  0.79196387  0.70623824  0.05101506     0.11300
C1030       C  0.65578326  0.72301827  0.17427965    -0.14800
C1031       C  0.61346861  0.69431288  0.14091865     0.07300
C1032       C  0.56375444  0.72295300  0.12357540    -0.14800
C1033       C  0.56332184  0.77941208  0.12487973    -0.14800
C1034       C  0.61298470  0.80826982  0.14232165     0.07300
C1035       C  0.65576567  0.77933391  0.17459506    -0.14800
H1036       H  0.69217198  0.70205165  0.19452528     0.11300
H1037       H  0.52527818  0.70246333  0.10890782     0.11300
H1038       H  0.52416253  0.79965411  0.11204578     0.11300
H1039       H  0.69208885  0.80015968  0.19511211     0.11300
C1040       C  0.71186105  0.92736703  0.10754575    -0.14800
C1041       C  0.68212634  0.87816170  0.10139931     0.07300
C1042       C  0.71198498  0.83636101  0.07284188    -0.14800
C1043       C  0.77156560  0.83834490  0.06935244    -0.14800
C1044       C  0.80407186  0.88084786  0.09746274     0.07300
C1045       C  0.77227505  0.92786594  0.10852997    -0.14800
H1046       H  0.68924730  0.96172895  0.12475462     0.11300
H1047       H  0.69032614  0.79998323  0.05813974     0.11300
H1048       H  0.79129943  0.80312042  0.05015032     0.11300
H1049       H  0.79394115  0.96342059  0.12236883     0.11300
C1050       C  0.56559628  0.89396017  0.28903109    -0.14800
C1051       C  0.61787077  0.89647405  0.32187065     0.07300
C1052       C  0.66438264  0.91820252  0.29051085    -0.14800
C1053       C  0.66728520  0.91024899  0.22895949    -0.14800
C1054       C  0.61828055  0.89539132  0.19418946     0.07300
C1055       C  0.56603202  0.89437543  0.22517658    -0.14800
H1056       H  0.52654461  0.88438943  0.31198440     0.11300
H1057       H  0.70339311  0.93117133  0.31341434     0.11300
H1058       H  0.71024314  0.90979629  0.21264442     0.11300
H1059       H  0.52714305  0.88740261  0.19981910     0.11300
C1060       C  0.72252727  0.83087436  0.35673338    -0.14800
C1061       C  0.69332004  0.86588069  0.39664693     0.07300
C1062       C  0.72800001  0.90091250  0.43287651    -0.14800
C1063       C  0.78768554  0.90289765  0.42615273    -0.14800
C1064       C  0.81520691  0.86926157  0.38427330     0.07300
C1065       C  0.78097983  0.83417850  0.34892390    -0.14800
H1066       H  0.69958238  0.80407504  0.32622709     0.11300
H1067       H  0.71135995  0.92830898  0.46576312     0.11300
H1068       H  0.81172201  0.93090831  0.45391437     0.11300
H1069       H  0.80038314  0.80725828  0.31635195     0.11300
C1070       C  0.66748668  0.58224807  0.28554118    -0.14800
C1071       C  0.62053539  0.60269829  0.31797256     0.07300
C1072       C  0.56833864  0.60565256  0.28522868    -0.14800
C1073       C  0.56869338  0.60706220  0.22143936    -0.14800
C1074       C  0.62073370  0.60629948  0.18996682     0.07300
C1075       C  0.66966640  0.58954307  0.22356430    -0.14800
H1076       H  0.70672129  0.56916955  0.30788768     0.11300
H1077       H  0.52926008  0.61453873  0.30853978     0.11300
H1078       H  0.52970918  0.61502775  0.19663998     0.11300
H1079       H  0.71198551  0.58746692  0.20567795     0.11300
C1080       C  0.72986902  0.59454869  0.42719823    -0.14800
C1081       C  0.69498131  0.63191570  0.39424322     0.07300
C1082       C  0.72387690  0.66867614  0.35634163    -0.14800
C1083       C  0.78215575  0.66568326  0.34787025    -0.14800
C1084       C  0.81676325  0.62971360  0.38151253     0.07300
C1085       C  0.78965741  0.59385483  0.42116452    -0.14800
H1086       H  0.71329032  0.56370124  0.45591614     0.11300
H1087       H  0.70085207  0.69674500  0.32747830     0.11300
H1088       H  0.80122606  0.69378401  0.31649420     0.11300
H1089       H  0.81392210  0.56441447  0.44684259     0.11300
C1090       C  0.61188283  0.77764517  0.44199305    -0.14800
C1091       C  0.60540347  0.80886527  0.38849486     0.07300
C1092       C  0.59312194  0.77796360  0.33553759    -0.14800
C1093       C  0.59384134  0.72078857  0.33478322    -0.14800
C1094       C  0.60680117  0.68918855  0.38694375     0.07300
C1095       C  0.61276726  0.71967786  0.44119643    -0.14800
H1096       H  0.62103964  0.79825277  0.48411320     0.11300
H1097       H  0.58987474  0.79661809  0.29177487     0.11300
H1098       H  0.59109413  0.70291484  0.29052561     0.11300
H1099       H  0.62289010  0.69861484  0.48268076     0.11300
O1100       O  0.94302114  0.88133514  0.96662076    -0.81600
O1101       O  0.54217696  0.59035718  0.92705599    -0.81600
O1102       O  0.91507480  0.55139738  0.90801914    -0.81600
O1103       O  0.61758045  0.94357691  0.96350345    -0.81600
O1104       O  0.94560877  0.61980996  0.96248125    -0.81700
O1105       O  0.54066007  0.90669123  0.93140821    -0.81600
O1106       O  0.61887799  0.55735954  0.96403909    -0.81600
O1107       O  0.91394304  0.94836931  0.90968261    -0.81600
C1108       C  0.91470415  0.89902225  0.92086378     1.08100
C1109       C  0.59536984  0.58960734  0.92679219     1.08000
C1110       C  0.91667263  0.60111144  0.91760391     1.08100
C1111       C  0.59378791  0.90853435  0.92967823     1.08000
O1112       O  0.55017038  0.86631176  0.54609689    -0.81600
O1113       O  0.96072250  0.58234035  0.58094952    -0.81700
O1114       O  0.88058555  0.94426479  0.53479610    -0.81600
O1115       O  0.57162483  0.55762678  0.58498401    -0.81600
O1116       O  0.55336639  0.63594233  0.54102158    -0.81600
O1117       O  0.95928935  0.92381987  0.58398616    -0.81600
O1118       O  0.57227862  0.94573615  0.58582118    -0.81600
O1119       O  0.88177972  0.56065340  0.53280901    -0.81600
Co1120     Co  0.00527871  0.92344344  0.50905266     1.51500
Co1121     Co  0.50665484  0.57831837  0.00610814     1.51700
Co1122     Co  0.90488332  0.00125050  0.47273066     1.51600
Co1123     Co  0.58429699  0.50064378  0.02030406     1.51500
O1124       O  0.99303846  0.00075649  0.98632186    -1.43500
C1125       C  0.57909340  0.89406129  0.58510322     1.08000
C1126       C  0.90727622  0.58962422  0.57282792     1.08100
C1127       C  0.90589575  0.91648230  0.57595175     1.08100
C1128       C  0.58061298  0.60887928  0.58191969     1.08000
C1129       C  0.62839131  0.62741852  0.88292890    -0.03900
C1130       C  0.62647760  0.87055843  0.88579643    -0.01300
C1131       C  0.62245785  0.86924280  0.63028173    -0.03900
C1132       C  0.62415413  0.63385785  0.62679699    -0.03900
C1133       C  0.88224085  0.63719646  0.87647821    -0.03900
C1134       C  0.87206805  0.63079748  0.61141087    -0.03900
C1135       C  0.87106000  0.87527710  0.61462209    -0.03900
C1136       C  0.88079393  0.86244973  0.87956149    -0.03900
C1137       C  0.92707765  0.85061944  0.71280345    -0.14800
C1138       C  0.88785908  0.88621994  0.68323173     0.07300
C1139       C  0.86316706  0.92566181  0.72093715    -0.14800
C1140       C  0.86774954  0.92132493  0.78422978    -0.14800
C1141       C  0.89415567  0.87570999  0.81233483     0.07300
C1142       C  0.92611656  0.84199244  0.77459549    -0.14800
H1143       H  0.95408468  0.82348072  0.68750040     0.11300
H1144       H  0.83956767  0.95951888  0.70365410     0.11300
H1145       H  0.84543594  0.95104939  0.81115530     0.11300
H1146       H  0.95028911  0.80772724  0.78995613     0.11300
C1147       C  0.85146732  0.72488440  0.64825231    -0.14800
C1148       C  0.88314993  0.69412362  0.60648393     0.07300
C1149       C  0.91744769  0.72408123  0.56610876    -0.14800
C1150       C  0.91701886  0.78253324  0.56670150    -0.14800
C1151       C  0.88173514  0.81184003  0.60711346     0.07300
C1152       C  0.85010259  0.78022841  0.64791414    -0.14800
H1153       H  0.82410129  0.70507869  0.68053500     0.11300
H1154       H  0.94364390  0.70297233  0.53396085     0.11300
H1155       H  0.94360198  0.80398480  0.53556802     0.11300
H1156       H  0.82209166  0.79937288  0.68022264     0.11300
C1157       C  0.92898129  0.65720672  0.77231548    -0.14800
C1158       C  0.89525143  0.62430499  0.80892785     0.07300
C1159       C  0.86601787  0.58095621  0.77911017    -0.14800
C1160       C  0.86002365  0.57917837  0.71572963    -0.14800
C1161       C  0.88760032  0.61774165  0.67954186     0.07300
C1162       C  0.92877397  0.65057866  0.71009938    -0.14800
H1163       H  0.95555571  0.68929957  0.78907884     0.11300
H1164       H  0.84224046  0.55166173  0.80495994     0.11300
H1165       H  0.83249952  0.54847546  0.69697674     0.11300
H1166       H  0.95660507  0.67729328  0.68546818     0.11300
C1167       C  0.85503146  0.77679379  0.93628416    -0.14800
C1168       C  0.89449495  0.80486352  0.90103638     0.07300
C1169       C  0.94736889  0.77863404  0.89306003    -0.14800
C1170       C  0.94763087  0.72196181  0.89161057    -0.14800
C1171       C  0.89509814  0.69495966  0.89868092     0.07300
C1172       C  0.85569276  0.72166992  0.93558524    -0.14800
H1173       H  0.81959322  0.79623935  0.95786083     0.11300
H1174       H  0.98533854  0.80113740  0.88184478     0.11300
H1175       H  0.98611883  0.70016736  0.88036837     0.11300
H1176       H  0.82110537  0.70110511  0.95732407     0.11300
C1177       C  0.71330613  0.67065909  0.57119612    -0.14800
C1178       C  0.68403943  0.62719044  0.59714863     0.07300
C1179       C  0.71426922  0.57809038  0.59905433    -0.14800
C1180       C  0.77469524  0.57818124  0.59982996    -0.14800
C1181       C  0.80577906  0.62597532  0.59318704     0.07300
C1182       C  0.77289683  0.66953785  0.56774124    -0.14800
H1183       H  0.69121609  0.70749448  0.55867718     0.11300
H1184       H  0.69159408  0.54250236  0.61134142     0.11300
H1185       H  0.79786477  0.54223430  0.60886842     0.11300
H1186       H  0.79214773  0.70588396  0.55073187     0.11300
C1187       C  0.65619787  0.72298821  0.67417300    -0.14800
C1188       C  0.61383031  0.69427008  0.64090118     0.07300
C1189       C  0.56411615  0.72291324  0.62357902    -0.14800
C1190       C  0.56369599  0.77937277  0.62484903    -0.14800
C1191       C  0.61337624  0.80823917  0.64221283     0.07300
C1192       C  0.65620667  0.77931054  0.67442138    -0.14800
H1193       H  0.69257134  0.70201150  0.69443941     0.11300
H1194       H  0.52560987  0.70240606  0.60902762     0.11300
H1195       H  0.52450576  0.79962495  0.61214046     0.11300
H1196       H  0.69252267  0.80015490  0.69493115     0.11300
C1197       C  0.71220452  0.92760716  0.60848560    -0.14800
C1198       C  0.68243733  0.87845929  0.60176927     0.07300
C1199       C  0.71232133  0.83688389  0.57284780    -0.14800
C1200       C  0.77189037  0.83897841  0.56928018    -0.14800
C1201       C  0.80445954  0.88120039  0.59788042     0.07300
C1202       C  0.77263642  0.92808947  0.60973968    -0.14800
H1203       H  0.68961204  0.96187261  0.62601760     0.11300
H1204       H  0.69071853  0.80053161  0.55789813     0.11300
H1205       H  0.79156493  0.80388279  0.54974443     0.11300
H1206       H  0.79410048  0.96352790  0.62429266     0.11300
C1207       C  0.56508287  0.89357792  0.78896935    -0.14800
C1208       C  0.61725725  0.89651915  0.82196291     0.07300
C1209       C  0.66362161  0.91864765  0.79076135    -0.14800
C1210       C  0.66687551  0.91036819  0.72931726    -0.14800
C1211       C  0.61809566  0.89524358  0.69433359     0.07300
C1212       C  0.56572318  0.89389826  0.72510914    -0.14800
H1213       H  0.52606030  0.88364036  0.81179506     0.11300
H1214       H  0.70244317  0.93193408  0.81380129     0.11300
H1215       H  0.70994994  0.90986076  0.71335176     0.11300
H1216       H  0.52697413  0.88649936  0.69962742     0.11300
C1217       C  0.72220884  0.83119210  0.85630333    -0.14800
C1218       C  0.69299579  0.86598372  0.89644744     0.07300
C1219       C  0.72767716  0.90099270  0.93270899    -0.14800
C1220       C  0.78734826  0.90311270  0.92588271    -0.14800
C1221       C  0.81489030  0.86960495  0.88389145     0.07300
C1222       C  0.78066009  0.83463455  0.84839136    -0.14800
H1223       H  0.69925223  0.80441232  0.82578088     0.11300
H1224       H  0.71104993  0.92823546  0.96575540     0.11300
H1225       H  0.81138375  0.93101301  0.95379203     0.11300
H1226       H  0.80007171  0.80777205  0.81576782     0.11300
C1227       C  0.66690208  0.58175056  0.78577001    -0.14800
C1228       C  0.62004979  0.60253400  0.81805214     0.07300
C1229       C  0.56793423  0.60580562  0.78518321    -0.14800
C1230       C  0.56847889  0.60731006  0.72139639    -0.14800
C1231       C  0.62064333  0.60631659  0.69011444     0.07300
C1232       C  0.66937915  0.58930475  0.72387940    -0.14800
H1233       H  0.70597724  0.56840731  0.80823869     0.11300
H1234       H  0.52885981  0.61497740  0.80838253     0.11300
H1235       H  0.52960063  0.61562583  0.69650546     0.11300
H1236       H  0.71180740  0.58723482  0.70629216     0.11300
C1237       C  0.72960920  0.59445181  0.92709522    -0.14800
C1238       C  0.69470885  0.63177065  0.89407981     0.07300
C1239       C  0.72359123  0.66836963  0.85597474    -0.14800
C1240       C  0.78187662  0.66533105  0.84746804    -0.14800
C1241       C  0.81650288  0.62949854  0.88127870     0.07300
C1242       C  0.78939212  0.59370396  0.92099914    -0.14800
H1243       H  0.71304973  0.56370560  0.95595665     0.11300
H1244       H  0.70054252  0.69638650  0.82706481     0.11300
H1245       H  0.80094549  0.69340112  0.81605868     0.11300
H1246       H  0.81366494  0.56435707  0.94680137     0.11300
C1247       C  0.61167869  0.77758664  0.94200189    -0.14800
C1248       C  0.60514487  0.80880621  0.88851091     0.07300
C1249       C  0.59290029  0.77789034  0.83555624    -0.14800
C1250       C  0.59361287  0.72072836  0.83480207    -0.14800
C1251       C  0.60656724  0.68912869  0.88695247     0.07300
C1252       C  0.61257963  0.71961651  0.94120220    -0.14800
H1253       H  0.62083536  0.79820005  0.98411784     0.11300
H1254       H  0.58975442  0.79649799  0.79176912     0.11300
H1255       H  0.59094400  0.70288642  0.79052907     0.11300
H1256       H  0.62272750  0.69855054  0.98268034     0.11300
loop_ 
_geom_bond_atom_site_label_1 
_geom_bond_atom_site_label_2 
_geom_bond_distance 
_geom_bond_site_symmetry_2 
_ccdc_geom_bond_type 
O1            C9   1.275       .  A
O1         Co178   1.992       .  S
O2           C10   1.242       .  A
O2          Co22   1.979       .  S
O3           C11   1.246       .  A
O3         Co494   1.940       .  S
O4           C12   1.264       .  A
O4         Co338   2.051       .  S
O5           C11   1.277       .  A
O5         Co650   1.989       .  S
O6           C12   1.242       .  A
O6         Co806   1.973       .  S
O7           C10   1.265       .  A
O7          Co24   2.059       .  S
O8            C9   1.246       .  A
O8         Co180   1.937       .  S
C9           C37   1.498       .  S
C10          C30   1.570       .  S
C11          C34   1.498       .  S
C12          C31   1.563       .  S
O13          C26   1.283       .  A
O13        Co649   1.936       .  S
O14          C27   1.269       .  A
O14        Co807   1.997       .  S
O15          C28   1.274       .  A
O15         Co23   2.045   1_554  S
O16          C29   1.282       .  A
O16        Co181   2.026       .  S
O17          C29   1.284       .  A
O17        Co179   1.942       .  S
O18          C28   1.268       .  A
O18         Co21   1.997       .  S
O19          C26   1.283       .  A
O19        Co495   2.030       .  S
O20          C27   1.271       .  A
O20        Co337   2.034   1_554  S
Co21        O158   1.992   1_554  S
Co21        O791   1.973   1_554  S
Co21        O641   1.936       .  S
Co21        O182   1.988   1_554  S
Co22        O633   1.989   1_455  S
Co22        O799   1.998   1_455  S
Co22        O174   1.941       .  S
Co22        O967   1.989   1_455  S
Co23        O474   1.935       .  S
Co23        O165   1.937       .  S
Co23        O334   2.049   1_556  S
Co23        O182   2.076       .  S
Co24        O318   2.045   1_545  S
Co24        O173   2.025       .  S
Co24        O490   2.038   1_545  S
Co24        O967   2.233   1_455  S
O25        Co178   1.988       .  S
O25        Co964   1.988       .  S
O25        Co180   2.076       .  S
O25        Co966   2.235       .  S
C26          C32   1.534       .  S
C27          C35   1.560       .  S
C28          C36   1.565       .  S
C29          C33   1.534       .  S
C30         C129   1.573       .  S
C30         C139   1.563       .  S
C30         C152   1.610       .  S
C31         C109   1.568       .  S
C31         C119   1.565       .  S
C31         C149   1.607       .  S
C32          C92   1.545       .  S
C32          C99   1.561       .  S
C32         C112   1.562       .  S
C33          C79   1.561       .  S
C33          C89   1.544       .  S
C33         C132   1.562       .  S
C34          C59   1.568       .  S
C34          C72   1.534       .  S
C34         C142   1.550       .  S
C35          C49   1.584       .  S
C35          C62   1.566       .  S
C35          C82   1.591       .  S
C36          C39   1.573       .  S
C36          C52   1.586       .  S
C36         C102   1.590       .  S
C37          C42   1.568       .  S
C37          C69   1.532       .  S
C37         C122   1.552       .  S
C38          C39   1.414       .  A
C38          C43   1.389       .  A
C38          H44   1.082       .  S
C39          C40   1.410       .  A
C40          C41   1.403       .  A
C40          H45   1.070       .  S
C41          C42   1.422       .  A
C41          H46   1.083       .  S
C42          C43   1.404       .  A
C43          H47   1.065       .  S
C48          C49   1.413       .  A
C48          C53   1.368       .  A
C48          H54   1.085       .  S
C49          C50   1.419       .  A
C50          C51   1.438       .  A
C50          H55   1.080       .  S
C51          C52   1.420       .  A
C51          H56   1.077       .  S
C52          C53   1.413       .  A
C53          H57   1.085       .  S
C58          C59   1.402       .  A
C58          C63   1.387       .  A
C58          H64   1.065       .  S
C59          C60   1.426       .  A
C60          C61   1.405       .  A
C60          H65   1.082       .  S
C61          C62   1.406       .  A
C61          H66   1.074       .  S
C62          C63   1.413       .  A
C63          H67   1.082       .  S
C68          C69   1.404       .  A
C68          C73   1.362       .  A
C68          H74   1.076       .  S
C69          C70   1.404       .  A
C70          C71   1.398       .  A
C70          H75   1.076       .  S
C71          C72   1.405       .  A
C71          H76   1.076       .  S
C72          C73   1.406       .  A
C73          H77   1.077       .  S
C78          C79   1.399       .  A
C78          C83   1.392       .  A
C78          H84   1.073       .  S
C79          C80   1.403       .  A
C80          C81   1.412       .  A
C80          H85   1.066       .  S
C81          C82   1.400       .  A
C81          H86   1.059       .  S
C82          C83   1.424       .  A
C83          H87   1.073       .  S
C88          C89   1.412       .  A
C88          C93   1.390       .  A
C88          H94   1.083       .  S
C89          C90   1.405       .  A
C90          C91   1.394       .  A
C90          H95   1.074       .  S
C91          C92   1.407       .  A
C91          H96   1.074       .  S
C92          C93   1.410       .  A
C93          H97   1.083       .  S
C98          C99   1.401       .  A
C98         C103   1.409       .  A
C98         H104   1.066       .  S
C99         C100   1.399       .  A
C100        C101   1.395       .  A
C100        H105   1.073       .  S
C101        C102   1.425       .  A
C101        H106   1.072       .  S
C102        C103   1.396       .  A
C103        H107   1.054       .  S
C108        C109   1.406       .  A
C108        C113   1.413       .  A
C108        H114   1.077       .  S
C109        C110   1.412       .  A
C110        C111   1.384       .  A
C110        H115   1.081       .  S
C111        C112   1.413       .  A
C111        H116   1.073       .  S
C112        C113   1.409       .  A
C113        H117   1.069       .  S
C118        C119   1.417       .  A
C118        C123   1.377       .  A
C118        H124   1.078       .  S
C119        C120   1.420       .  A
C120        C121   1.403       .  A
C120        H125   1.070       .  S
C121        C122   1.406       .  A
C121        H126   1.075       .  S
C122        C123   1.404       .  A
C123        H127   1.084       .  S
C128        C129   1.418       .  A
C128        C133   1.390       .  A
C128        H134   1.080       .  S
C129        C130   1.405       .  A
C130        C131   1.412       .  A
C130        H135   1.077       .  S
C131        C132   1.410       .  A
C131        H136   1.068       .  S
C132        C133   1.410       .  A
C133        H137   1.074       .  S
C138        C139   1.421       .  A
C138        C143   1.403       .  A
C138        H144   1.070       .  S
C139        C140   1.417       .  A
C140        C141   1.376       .  A
C140        H145   1.078       .  S
C141        C142   1.404       .  A
C141        H146   1.084       .  S
C142        C143   1.406       .  A
C143        H147   1.076       .  S
C148        C149   1.420       .  A
C148        C153   1.430       .  A
C148        H154   1.079       .  S
C149        C150   1.422       .  A
C150        C151   1.414       .  A
C150        H155   1.075       .  S
C151        C152   1.423       .  A
C151        H156   1.075       .  S
C152        C153   1.421       .  A
C153        H157   1.078       .  S
O158        C166   1.275       .  A
O159        C167   1.241       .  A
O159       Co179   1.978   1_556  S
O160        C168   1.245       .  A
O160       Co337   1.939       .  S
O161        C169   1.265       .  A
O161       Co495   2.053   1_556  S
O162        C168   1.277       .  A
O162       Co807   1.990   1_556  S
O163        C169   1.242       .  A
O163       Co649   1.973   1_556  S
O164        C167   1.265       .  A
O164       Co181   2.059   1_556  S
O165        C166   1.246       .  A
C166        C194   1.498       .  S
C167        C187   1.570       .  S
C168        C191   1.498       .  S
C169        C188   1.564       .  S
O170        C183   1.283       .  A
O170       Co806   1.935       .  S
O171        C184   1.269       .  A
O171       Co650   1.998       .  S
O172        C185   1.274       .  A
O172       Co180   2.045       .  S
O173        C186   1.282       .  A
O174        C186   1.284       .  A
O175        C185   1.269       .  A
O175       Co178   1.997       .  S
O176        C183   1.283       .  A
O176       Co338   2.031       .  S
O177        C184   1.271       .  A
O177       Co494   2.033       .  S
Co178       O634   1.973       .  S
Co178       O798   1.935       .  S
Co179       O790   1.990   1_454  S
Co179       O642   1.997   1_455  S
Co179      O1124   1.989   1_454  S
Co180       O317   1.934       .  S
Co180       O491   2.049       .  S
Co181       O475   2.045   1_544  S
Co181       O333   2.038   1_545  S
Co181      O1124   2.233   1_454  S
O182      Co1121   1.987   1_556  S
O182      Co1123   2.235   1_556  S
C183        C189   1.534       .  S
C184        C192   1.560       .  S
C185        C193   1.566       .  S
C186        C190   1.533       .  S
C187        C286   1.573       .  S
C187        C296   1.562       .  S
C187        C309   1.611       .  S
C188        C266   1.569       .  S
C188        C276   1.565       .  S
C188        C306   1.608       .  S
C189        C249   1.545       .  S
C189        C256   1.561       .  S
C189        C269   1.562       .  S
C190        C236   1.561       .  S
C190        C246   1.544       .  S
C190        C289   1.562       .  S
C191        C216   1.569       .  S
C191        C229   1.534       .  S
C191        C299   1.550       .  S
C192        C206   1.585       .  S
C192        C219   1.565       .  S
C192        C239   1.591       .  S
C193        C196   1.572       .  S
C193        C209   1.586       .  S
C193        C259   1.590       .  S
C194        C199   1.569       .  S
C194        C226   1.532       .  S
C194        C279   1.552       .  S
C195        C196   1.414       .  A
C195        C200   1.389       .  A
C195        H201   1.082       .  S
C196        C197   1.409       .  A
C197        C198   1.403       .  A
C197        H202   1.070       .  S
C198        C199   1.422       .  A
C198        H203   1.083       .  S
C199        C200   1.404       .  A
C200        H204   1.065       .  S
C205        C206   1.413       .  A
C205        C210   1.369       .  A
C205        H211   1.085       .  S
C206        C207   1.419       .  A
C207        C208   1.438       .  A
C207        H212   1.080       .  S
C208        C209   1.420       .  A
C208        H213   1.077       .  S
C209        C210   1.413       .  A
C210        H214   1.085       .  S
C215        C216   1.402       .  A
C215        C220   1.388       .  A
C215        H221   1.065       .  S
C216        C217   1.426       .  A
C217        C218   1.405       .  A
C217        H222   1.082       .  S
C218        C219   1.406       .  A
C218        H223   1.074       .  S
C219        C220   1.412       .  A
C220        H224   1.082       .  S
C225        C226   1.404       .  A
C225        C230   1.362       .  A
C225        H231   1.076       .  S
C226        C227   1.403       .  A
C227        C228   1.398       .  A
C227        H232   1.076       .  S
C228        C229   1.405       .  A
C228        H233   1.076       .  S
C229        C230   1.406       .  A
C230        H234   1.077       .  S
C235        C236   1.399       .  A
C235        C240   1.392       .  A
C235        H241   1.073       .  S
C236        C237   1.403       .  A
C237        C238   1.412       .  A
C237        H242   1.066       .  S
C238        C239   1.401       .  A
C238        H243   1.060       .  S
C239        C240   1.423       .  A
C240        H244   1.073       .  S
C245        C246   1.412       .  A
C245        C250   1.390       .  A
C245        H251   1.083       .  S
C246        C247   1.405       .  A
C247        C248   1.394       .  A
C247        H252   1.074       .  S
C248        C249   1.407       .  A
C248        H253   1.074       .  S
C249        C250   1.410       .  A
C250        H254   1.083       .  S
C255        C256   1.401       .  A
C255        C260   1.409       .  A
C255        H261   1.065       .  S
C256        C257   1.399       .  A
C257        C258   1.395       .  A
C257        H262   1.073       .  S
C258        C259   1.425       .  A
C258        H263   1.071       .  S
C259        C260   1.396       .  A
C260        H264   1.056       .  S
C265        C266   1.406       .  A
C265        C270   1.413       .  A
C265        H271   1.077       .  S
C266        C267   1.413       .  A
C267        C268   1.385       .  A
C267        H272   1.081       .  S
C268        C269   1.412       .  A
C268        H273   1.073       .  S
C269        C270   1.409       .  A
C270        H274   1.069       .  S
C275        C276   1.417       .  A
C275        C280   1.377       .  A
C275        H281   1.078       .  S
C276        C277   1.420       .  A
C277        C278   1.403       .  A
C277        H282   1.070       .  S
C278        C279   1.406       .  A
C278        H283   1.075       .  S
C279        C280   1.404       .  A
C280        H284   1.084       .  S
C285        C286   1.418       .  A
C285        C290   1.390       .  A
C285        H291   1.080       .  S
C286        C287   1.405       .  A
C287        C288   1.412       .  A
C287        H292   1.077       .  S
C288        C289   1.410       .  A
C288        H293   1.068       .  S
C289        C290   1.410       .  A
C290        H294   1.074       .  S
C295        C296   1.421       .  A
C295        C300   1.403       .  A
C295        H301   1.070       .  S
C296        C297   1.417       .  A
C297        C298   1.376       .  A
C297        H302   1.078       .  S
C298        C299   1.404       .  A
C298        H303   1.084       .  S
C299        C300   1.406       .  A
C300        H304   1.076       .  S
C305        C306   1.420       .  A
C305        C310   1.430       .  A
C305        H311   1.079       .  S
C306        C307   1.423       .  A
C307        C308   1.415       .  A
C307        H312   1.075       .  S
C308        C309   1.423       .  A
C308        H313   1.075       .  S
C309        C310   1.421       .  A
C310        H314   1.078       .  S
O315        C323   1.276       .  A
O315       Co492   2.000       .  S
O316        C324   1.241       .  A
O316       Co336   1.975       .  S
O317        C325   1.244       .  A
O318        C326   1.264       .  A
O319        C325   1.276       .  A
O319       Co964   1.989       .  S
O320        C326   1.242       .  A
O320      Co1120   1.968       .  S
O321        C324   1.264       .  A
O321       Co338   2.053       .  S
O322        C323   1.243       .  A
O322       Co494   1.925   1_565  S
C323        C351   1.498       .  S
C324        C344   1.564       .  S
C325        C348   1.496       .  S
C326        C345   1.558       .  S
O327        C340   1.282       .  A
O327       Co963   1.929       .  S
O328        C341   1.269       .  A
O328      Co1121   1.997       .  S
O329        C342   1.276       .  A
O329       Co337   2.056   1_564  S
O330        C343   1.284       .  A
O330       Co495   2.031       .  S
O331        C343   1.284       .  A
O331       Co493   1.938       .  S
O332        C342   1.268       .  A
O332       Co335   1.993       .  S
O333        C340   1.285       .  A
O334        C341   1.275       .  A
Co335       O472   1.999   1_554  S
Co335      O1105   1.967   1_554  S
Co335       O955   1.929       .  S
Co335       O496   1.992   1_564  S
Co336       O947   1.989   1_455  S
Co336      O1113   1.997   1_455  S
Co336       O488   1.938       .  S
Co336       O653   1.988   1_455  S
Co337       O479   1.925   1_545  S
Co337       O496   2.077       .  S
Co338       O487   2.030       .  S
Co338       O653   2.235   1_455  S
O339       Co492   1.992   1_545  S
O339       Co650   1.989       .  S
O339       Co494   2.077       .  S
O339       Co652   2.233       .  S
C340        C346   1.536       .  S
C341        C349   1.568       .  S
C342        C350   1.569       .  S
C343        C347   1.535       .  S
C344        C443   1.569       .  S
C344        C453   1.565       .  S
C344        C466   1.607       .  S
C345        C423   1.564       .  S
C345        C433   1.568       .  S
C345        C463   1.605       .  S
C346        C406   1.544       .  S
C346        C413   1.563       .  S
C346        C426   1.560       .  S
C347        C393   1.563       .  S
C347        C403   1.541       .  S
C347        C446   1.563       .  S
C348        C373   1.564       .  S
C348        C386   1.534       .  S
C348        C456   1.552       .  S
C349        C363   1.588       .  S
C349        C376   1.576       .  S
C349        C396   1.595       .  S
C350        C353   1.582       .  S
C350        C366   1.593       .  S
C350        C416   1.596       .  S
C351        C356   1.563       .  S
C351        C383   1.530       .  S
C351        C436   1.552       .  S
C352        C353   1.418       .  A
C352        C357   1.386       .  A
C352        H358   1.081       .  S
C353        C354   1.410       .  A
C354        C355   1.407       .  A
C354        H359   1.067       .  S
C355        C356   1.421       .  A
C355        H360   1.083       .  S
C356        C357   1.402       .  A
C357        H361   1.068       .  S
C362        C363   1.414       .  A
C362        C367   1.366       .  A
C362        H368   1.085       .  S
C363        C364   1.420       .  A
C364        C365   1.441       .  A
C364        H369   1.080       .  S
C365        C366   1.423       .  A
C365        H370   1.077       .  S
C366        C367   1.414       .  A
C367        H371   1.085       .  S
C372        C373   1.402       .  A
C372        C377   1.387       .  A
C372        H378   1.067       .  S
C373        C374   1.424       .  A
C374        C375   1.408       .  A
C374        H379   1.083       .  S
C375        C376   1.409       .  A
C375        H380   1.072       .  S
C376        C377   1.417       .  A
C377        H381   1.082       .  S
C382        C383   1.403       .  A
C382        C387   1.359       .  A
C382        H388   1.074       .  S
C383        C384   1.406       .  A
C384        C385   1.398       .  A
C384        H389   1.079       .  S
C385        C386   1.407       .  A
C385        H390   1.078       .  S
C386        C387   1.404       .  A
C387        H391   1.076       .  S
C392        C393   1.402       .  A
C392        C397   1.394       .  A
C392        H398   1.077       .  S
C393        C394   1.400       .  A
C394        C395   1.410       .  A
C394        H399   1.064       .  S
C395        C396   1.396       .  A
C395        H400   1.053       .  S
C396        C397   1.429       .  A
C397        H401   1.075       .  S
C402        C403   1.411       .  A
C402        C407   1.389       .  A
C402        H408   1.083       .  S
C403        C404   1.404       .  A
C404        C405   1.393       .  A
C404        H409   1.075       .  S
C405        C406   1.408       .  A
C405        H410   1.074       .  S
C406        C407   1.410       .  A
C407        H411   1.083       .  S
C412        C413   1.404       .  A
C412        C417   1.409       .  A
C412        H418   1.071       .  S
C413        C414   1.400       .  A
C414        C415   1.395       .  A
C414        H419   1.077       .  S
C415        C416   1.429       .  A
C415        H420   1.074       .  S
C416        C417   1.399       .  A
C417        H421   1.055       .  S
C422        C423   1.409       .  A
C422        C427   1.414       .  A
C422        H428   1.079       .  S
C423        C424   1.407       .  A
C424        C425   1.379       .  A
C424        H429   1.081       .  S
C425        C426   1.414       .  A
C425        H430   1.072       .  S
C426        C427   1.411       .  A
C427        H431   1.071       .  S
C432        C433   1.417       .  A
C432        C437   1.380       .  A
C432        H438   1.079       .  S
C433        C434   1.420       .  A
C434        C435   1.404       .  A
C434        H439   1.070       .  S
C435        C436   1.407       .  A
C435        H440   1.075       .  S
C436        C437   1.405       .  A
C437        H441   1.084       .  S
C442        C443   1.413       .  A
C442        C447   1.386       .  A
C442        H448   1.081       .  S
C443        C444   1.406       .  A
C444        C445   1.413       .  A
C444        H449   1.078       .  S
C445        C446   1.412       .  A
C445        H450   1.071       .  S
C446        C447   1.412       .  A
C447        H451   1.072       .  S
C452        C453   1.422       .  A
C452        C457   1.404       .  A
C452        H458   1.070       .  S
C453        C454   1.417       .  A
C454        C455   1.378       .  A
C454        H459   1.079       .  S
C455        C456   1.404       .  A
C455        H460   1.084       .  S
C456        C457   1.407       .  A
C457        H461   1.076       .  S
C462        C463   1.419       .  A
C462        C467   1.430       .  A
C462        H468   1.079       .  S
C463        C464   1.422       .  A
C464        C465   1.410       .  A
C464        H469   1.075       .  S
C465        C466   1.422       .  A
C465        H470   1.074       .  S
C466        C467   1.420       .  A
C467        H471   1.078       .  S
O472        C480   1.276       .  A
O473        C481   1.241       .  A
O473       Co493   1.974   1_556  S
O474        C482   1.245       .  A
O475        C483   1.264       .  A
O476        C482   1.276       .  A
O476      Co1121   1.989   1_556  S
O477        C483   1.242       .  A
O477       Co963   1.967   1_556  S
O478        C481   1.264       .  A
O478       Co495   2.052   1_556  S
O479        C480   1.243       .  A
C480        C508   1.498       .  S
C481        C501   1.563       .  S
C482        C505   1.496       .  S
C483        C502   1.558       .  S
O484        C497   1.282       .  A
O484      Co1120   1.929       .  S
O485        C498   1.269       .  A
O485       Co964   1.997       .  S
O486        C499   1.276       .  A
O486       Co494   2.056   1_565  S
O487        C500   1.284       .  A
O488        C500   1.284       .  A
O489        C499   1.268       .  A
O489       Co492   1.993       .  S
O490        C497   1.284       .  A
O491        C498   1.275       .  A
Co492       O948   1.968       .  S
Co492      O1112   1.929       .  S
Co493      O1104   1.989   1_454  S
Co493       O956   1.997   1_455  S
Co493       O810   1.987   1_454  S
Co495       O810   2.235   1_454  S
O496       Co807   1.989   1_556  S
O496       Co809   2.233   1_556  S
C497        C503   1.536       .  S
C498        C506   1.567       .  S
C499        C507   1.568       .  S
C500        C504   1.535       .  S
C501        C600   1.569       .  S
C501        C610   1.566       .  S
C501        C623   1.607       .  S
C502        C580   1.563       .  S
C502        C590   1.569       .  S
C502        C620   1.605       .  S
C503        C563   1.544       .  S
C503        C570   1.563       .  S
C503        C583   1.560       .  S
C504        C550   1.564       .  S
C504        C560   1.541       .  S
C504        C603   1.563       .  S
C505        C530   1.564       .  S
C505        C543   1.534       .  S
C505        C613   1.551       .  S
C506        C520   1.588       .  S
C506        C533   1.578       .  S
C506        C553   1.595       .  S
C507        C510   1.583       .  S
C507        C523   1.593       .  S
C507        C573   1.597       .  S
C508        C513   1.562       .  S
C508        C540   1.530       .  S
C508        C593   1.552       .  S
C509        C510   1.419       .  A
C509        C514   1.385       .  A
C509        H515   1.082       .  S
C510        C511   1.410       .  A
C511        C512   1.407       .  A
C511        H516   1.067       .  S
C512        C513   1.421       .  A
C512        H517   1.083       .  S
C513        C514   1.402       .  A
C514        H518   1.068       .  S
C519        C520   1.414       .  A
C519        C524   1.365       .  A
C519        H525   1.085       .  S
C520        C521   1.421       .  A
C521        C522   1.442       .  A
C521        H526   1.080       .  S
C522        C523   1.423       .  A
C522        H527   1.077       .  S
C523        C524   1.414       .  A
C524        H528   1.085       .  S
C529        C530   1.402       .  A
C529        C534   1.386       .  A
C529        H535   1.067       .  S
C530        C531   1.423       .  A
C531        C532   1.408       .  A
C531        H536   1.083       .  S
C532        C533   1.409       .  A
C532        H537   1.071       .  S
C533        C534   1.418       .  A
C534        H538   1.082       .  S
C539        C540   1.403       .  A
C539        C544   1.360       .  A
C539        H545   1.075       .  S
C540        C541   1.406       .  A
C541        C542   1.398       .  A
C541        H546   1.079       .  S
C542        C543   1.407       .  A
C542        H547   1.079       .  S
C543        C544   1.404       .  A
C544        H548   1.076       .  S
C549        C550   1.402       .  A
C549        C554   1.394       .  A
C549        H555   1.078       .  S
C550        C551   1.401       .  A
C551        C552   1.410       .  A
C551        H556   1.064       .  S
C552        C553   1.395       .  A
C552        H557   1.054       .  S
C553        C554   1.429       .  A
C554        H558   1.075       .  S
C559        C560   1.411       .  A
C559        C564   1.389       .  A
C559        H565   1.083       .  S
C560        C561   1.404       .  A
C561        C562   1.393       .  A
C561        H566   1.075       .  S
C562        C563   1.408       .  A
C562        H567   1.074       .  S
C563        C564   1.410       .  A
C564        H568   1.083       .  S
C569        C570   1.404       .  A
C569        C574   1.410       .  A
C569        H575   1.071       .  S
C570        C571   1.400       .  A
C571        C572   1.395       .  A
C571        H576   1.077       .  S
C572        C573   1.429       .  A
C572        H577   1.073       .  S
C573        C574   1.400       .  A
C574        H578   1.054       .  S
C579        C580   1.409       .  A
C579        C584   1.414       .  A
C579        H585   1.079       .  S
C580        C581   1.406       .  A
C581        C582   1.379       .  A
C581        H586   1.081       .  S
C582        C583   1.414       .  A
C582        H587   1.072       .  S
C583        C584   1.411       .  A
C584        H588   1.072       .  S
C589        C590   1.418       .  A
C589        C594   1.381       .  A
C589        H595   1.079       .  S
C590        C591   1.420       .  A
C591        C592   1.404       .  A
C591        H596   1.070       .  S
C592        C593   1.407       .  A
C592        H597   1.075       .  S
C593        C594   1.405       .  A
C594        H598   1.084       .  S
C599        C600   1.413       .  A
C599        C604   1.385       .  A
C599        H605   1.081       .  S
C600        C601   1.407       .  A
C601        C602   1.413       .  A
C601        H606   1.079       .  S
C602        C603   1.412       .  A
C602        H607   1.072       .  S
C603        C604   1.412       .  A
C604        H608   1.072       .  S
C609        C610   1.422       .  A
C609        C614   1.404       .  A
C609        H615   1.070       .  S
C610        C611   1.417       .  A
C611        C612   1.378       .  A
C611        H616   1.079       .  S
C612        C613   1.404       .  A
C612        H617   1.084       .  S
C613        C614   1.407       .  A
C614        H618   1.076       .  S
C619        C620   1.419       .  A
C619        C624   1.430       .  A
C619        H625   1.079       .  S
C620        C621   1.421       .  A
C621        C622   1.410       .  A
C621        H626   1.074       .  S
C622        C623   1.422       .  A
C622        H627   1.074       .  S
C623        C624   1.420       .  A
C624        H628   1.078       .  S
O629        C637   1.275       .  A
O629       Co806   1.992   1_655  S
O630        C638   1.241       .  A
O630       Co650   1.979       .  S
O631        C639   1.246       .  A
O631      Co1122   1.940       .  S
O632        C640   1.264       .  A
O632       Co966   2.052       .  S
O633        C639   1.277       .  A
O634        C640   1.242       .  A
O635        C638   1.265       .  A
O635       Co652   2.059       .  S
O636        C637   1.246       .  A
O636       Co808   1.937       .  S
C637        C665   1.498       .  S
C638        C658   1.570       .  S
C639        C662   1.498       .  S
C640        C659   1.563       .  S
O641        C654   1.283       .  A
O642        C655   1.269       .  A
O643        C656   1.274       .  A
O643       Co651   2.045   1_554  S
O644        C657   1.282       .  A
O644       Co809   2.026       .  S
O645        C657   1.284       .  A
O645       Co807   1.942       .  S
O646        C656   1.268       .  A
O646       Co649   1.997   1_655  S
O647        C654   1.283       .  A
O647      Co1123   2.030       .  S
O648        C655   1.271       .  A
O648       Co965   2.034   1_554  S
Co649       O786   1.992   1_454  S
Co649       O810   1.988   1_454  S
Co650       O802   1.941       .  S
Co651      O1102   1.935       .  S
Co651       O793   1.937       .  S
Co651       O962   2.049   1_556  S
Co651       O810   2.076       .  S
Co652       O946   2.045   1_545  S
Co652       O801   2.025       .  S
Co652      O1118   2.038   1_545  S
O653       Co806   1.988   1_655  S
O653       Co808   2.076       .  S
C654        C660   1.534       .  S
C655        C663   1.560       .  S
C656        C664   1.565       .  S
C657        C661   1.534       .  S
C658        C757   1.573       .  S
C658        C767   1.562       .  S
C658        C780   1.610       .  S
C659        C737   1.568       .  S
C659        C747   1.565       .  S
C659        C777   1.607       .  S
C660        C720   1.545       .  S
C660        C727   1.561       .  S
C660        C740   1.562       .  S
C661        C707   1.561       .  S
C661        C717   1.544       .  S
C661        C760   1.562       .  S
C662        C687   1.568       .  S
C662        C700   1.534       .  S
C662        C770   1.550       .  S
C663        C677   1.584       .  S
C663        C690   1.566       .  S
C663        C710   1.591       .  S
C664        C667   1.573       .  S
C664        C680   1.586       .  S
C664        C730   1.590       .  S
C665        C670   1.568       .  S
C665        C697   1.532       .  S
C665        C750   1.552       .  S
C666        C667   1.414       .  A
C666        C671   1.389       .  A
C666        H672   1.082       .  S
C667        C668   1.410       .  A
C668        C669   1.403       .  A
C668        H673   1.070       .  S
C669        C670   1.422       .  A
C669        H674   1.083       .  S
C670        C671   1.404       .  A
C671        H675   1.065       .  S
C676        C677   1.413       .  A
C676        C681   1.368       .  A
C676        H682   1.085       .  S
C677        C678   1.419       .  A
C678        C679   1.438       .  A
C678        H683   1.080       .  S
C679        C680   1.420       .  A
C679        H684   1.077       .  S
C680        C681   1.413       .  A
C681        H685   1.085       .  S
C686        C687   1.402       .  A
C686        C691   1.387       .  A
C686        H692   1.065       .  S
C687        C688   1.426       .  A
C688        C689   1.405       .  A
C688        H693   1.082       .  S
C689        C690   1.406       .  A
C689        H694   1.074       .  S
C690        C691   1.413       .  A
C691        H695   1.082       .  S
C696        C697   1.404       .  A
C696        C701   1.362       .  A
C696        H702   1.076       .  S
C697        C698   1.404       .  A
C698        C699   1.398       .  A
C698        H703   1.076       .  S
C699        C700   1.405       .  A
C699        H704   1.076       .  S
C700        C701   1.406       .  A
C701        H705   1.077       .  S
C706        C707   1.399       .  A
C706        C711   1.392       .  A
C706        H712   1.073       .  S
C707        C708   1.403       .  A
C708        C709   1.412       .  A
C708        H713   1.066       .  S
C709        C710   1.400       .  A
C709        H714   1.060       .  S
C710        C711   1.424       .  A
C711        H715   1.073       .  S
C716        C717   1.412       .  A
C716        C721   1.390       .  A
C716        H722   1.083       .  S
C717        C718   1.405       .  A
C718        C719   1.394       .  A
C718        H723   1.074       .  S
C719        C720   1.407       .  A
C719        H724   1.074       .  S
C720        C721   1.410       .  A
C721        H725   1.083       .  S
C726        C727   1.401       .  A
C726        C731   1.409       .  A
C726        H732   1.066       .  S
C727        C728   1.399       .  A
C728        C729   1.395       .  A
C728        H733   1.073       .  S
C729        C730   1.425       .  A
C729        H734   1.071       .  S
C730        C731   1.396       .  A
C731        H735   1.054       .  S
C736        C737   1.407       .  A
C736        C741   1.413       .  A
C736        H742   1.077       .  S
C737        C738   1.413       .  A
C738        C739   1.384       .  A
C738        H743   1.081       .  S
C739        C740   1.413       .  A
C739        H744   1.073       .  S
C740        C741   1.409       .  A
C741        H745   1.069       .  S
C746        C747   1.417       .  A
C746        C751   1.378       .  A
C746        H752   1.079       .  S
C747        C748   1.420       .  A
C748        C749   1.403       .  A
C748        H753   1.070       .  S
C749        C750   1.406       .  A
C749        H754   1.075       .  S
C750        C751   1.404       .  A
C751        H755   1.084       .  S
C756        C757   1.418       .  A
C756        C761   1.390       .  A
C756        H762   1.080       .  S
C757        C758   1.405       .  A
C758        C759   1.412       .  A
C758        H763   1.077       .  S
C759        C760   1.410       .  A
C759        H764   1.068       .  S
C760        C761   1.410       .  A
C761        H765   1.074       .  S
C766        C767   1.421       .  A
C766        C771   1.403       .  A
C766        H772   1.070       .  S
C767        C768   1.417       .  A
C768        C769   1.376       .  A
C768        H773   1.078       .  S
C769        C770   1.404       .  A
C769        H774   1.084       .  S
C770        C771   1.406       .  A
C771        H775   1.076       .  S
C776        C777   1.420       .  A
C776        C781   1.430       .  A
C776        H782   1.079       .  S
C777        C778   1.423       .  A
C778        C779   1.414       .  A
C778        H783   1.075       .  S
C779        C780   1.423       .  A
C779        H784   1.075       .  S
C780        C781   1.421       .  A
C781        H785   1.078       .  S
O786        C794   1.275       .  A
O787        C795   1.241       .  A
O787       Co807   1.978   1_556  S
O788        C796   1.246       .  A
O788       Co965   1.939       .  S
O789        C797   1.265       .  A
O789      Co1123   2.053   1_556  S
O790        C796   1.277       .  A
O791        C797   1.242       .  A
O792        C795   1.265       .  A
O792       Co809   2.059   1_556  S
O793        C794   1.246       .  A
C794        C822   1.498       .  S
C795        C815   1.569       .  S
C796        C819   1.498       .  S
C797        C816   1.564       .  S
O798        C811   1.283       .  A
O799        C812   1.269       .  A
O800        C813   1.274       .  A
O800       Co808   2.045       .  S
O801        C814   1.282       .  A
O802        C814   1.284       .  A
O803        C813   1.269       .  A
O803       Co806   1.997   1_655  S
O804        C811   1.283       .  A
O804       Co966   2.031       .  S
O805        C812   1.271       .  A
O805      Co1122   2.033       .  S
Co808       O945   1.934       .  S
Co808      O1119   2.049       .  S
Co809      O1103   2.045   1_544  S
Co809       O961   2.038   1_545  S
C811        C817   1.534       .  S
C812        C820   1.560       .  S
C813        C821   1.566       .  S
C814        C818   1.533       .  S
C815        C914   1.573       .  S
C815        C924   1.562       .  S
C815        C937   1.610       .  S
C816        C894   1.569       .  S
C816        C904   1.565       .  S
C816        C934   1.608       .  S
C817        C877   1.545       .  S
C817        C884   1.561       .  S
C817        C897   1.561       .  S
C818        C864   1.561       .  S
C818        C874   1.545       .  S
C818        C917   1.562       .  S
C819        C844   1.569       .  S
C819        C857   1.534       .  S
C819        C927   1.550       .  S
C820        C834   1.585       .  S
C820        C847   1.565       .  S
C820        C867   1.591       .  S
C821        C824   1.572       .  S
C821        C837   1.586       .  S
C821        C887   1.590       .  S
C822        C827   1.569       .  S
C822        C854   1.532       .  S
C822        C907   1.552       .  S
C823        C824   1.414       .  A
C823        C828   1.389       .  A
C823        H829   1.082       .  S
C824        C825   1.409       .  A
C825        C826   1.403       .  A
C825        H830   1.070       .  S
C826        C827   1.422       .  A
C826        H831   1.083       .  S
C827        C828   1.404       .  A
C828        H832   1.065       .  S
C833        C834   1.413       .  A
C833        C838   1.369       .  A
C833        H839   1.085       .  S
C834        C835   1.419       .  A
C835        C836   1.438       .  A
C835        H840   1.080       .  S
C836        C837   1.420       .  A
C836        H841   1.078       .  S
C837        C838   1.413       .  A
C838        H842   1.085       .  S
C843        C844   1.402       .  A
C843        C848   1.388       .  A
C843        H849   1.065       .  S
C844        C845   1.426       .  A
C845        C846   1.405       .  A
C845        H850   1.082       .  S
C846        C847   1.406       .  A
C846        H851   1.074       .  S
C847        C848   1.412       .  A
C848        H852   1.082       .  S
C853        C854   1.404       .  A
C853        C858   1.362       .  A
C853        H859   1.076       .  S
C854        C855   1.403       .  A
C855        C856   1.398       .  A
C855        H860   1.076       .  S
C856        C857   1.405       .  A
C856        H861   1.076       .  S
C857        C858   1.406       .  A
C858        H862   1.077       .  S
C863        C864   1.399       .  A
C863        C868   1.392       .  A
C863        H869   1.073       .  S
C864        C865   1.403       .  A
C865        C866   1.412       .  A
C865        H870   1.066       .  S
C866        C867   1.401       .  A
C866        H871   1.060       .  S
C867        C868   1.423       .  A
C868        H872   1.073       .  S
C873        C874   1.412       .  A
C873        C878   1.390       .  A
C873        H879   1.083       .  S
C874        C875   1.405       .  A
C875        C876   1.394       .  A
C875        H880   1.074       .  S
C876        C877   1.407       .  A
C876        H881   1.074       .  S
C877        C878   1.410       .  A
C878        H882   1.083       .  S
C883        C884   1.401       .  A
C883        C888   1.409       .  A
C883        H889   1.065       .  S
C884        C885   1.399       .  A
C885        C886   1.394       .  A
C885        H890   1.073       .  S
C886        C887   1.425       .  A
C886        H891   1.071       .  S
C887        C888   1.395       .  A
C888        H892   1.057       .  S
C893        C894   1.406       .  A
C893        C898   1.413       .  A
C893        H899   1.077       .  S
C894        C895   1.413       .  A
C895        C896   1.385       .  A
C895        H900   1.081       .  S
C896        C897   1.412       .  A
C896        H901   1.073       .  S
C897        C898   1.409       .  A
C898        H902   1.069       .  S
C903        C904   1.417       .  A
C903        C908   1.377       .  A
C903        H909   1.078       .  S
C904        C905   1.420       .  A
C905        C906   1.403       .  A
C905        H910   1.070       .  S
C906        C907   1.406       .  A
C906        H911   1.075       .  S
C907        C908   1.404       .  A
C908        H912   1.084       .  S
C913        C914   1.418       .  A
C913        C918   1.390       .  A
C913        H919   1.080       .  S
C914        C915   1.405       .  A
C915        C916   1.412       .  A
C915        H920   1.077       .  S
C916        C917   1.410       .  A
C916        H921   1.068       .  S
C917        C918   1.410       .  A
C918        H922   1.074       .  S
C923        C924   1.421       .  A
C923        C928   1.403       .  A
C923        H929   1.070       .  S
C924        C925   1.417       .  A
C925        C926   1.376       .  A
C925        H930   1.078       .  S
C926        C927   1.404       .  A
C926        H931   1.084       .  S
C927        C928   1.406       .  A
C928        H932   1.076       .  S
C933        C934   1.420       .  A
C933        C938   1.430       .  A
C933        H939   1.079       .  S
C934        C935   1.423       .  A
C935        C936   1.415       .  A
C935        H940   1.075       .  S
C936        C937   1.423       .  A
C936        H941   1.075       .  S
C937        C938   1.421       .  A
C938        H942   1.078       .  S
O943        C951   1.276       .  A
O943      Co1120   1.999   1_655  S
O944        C952   1.241       .  A
O944       Co964   1.975       .  S
O945        C953   1.244       .  A
O946        C954   1.264       .  A
O947        C953   1.276       .  A
O948        C954   1.242       .  A
O949        C952   1.264       .  A
O949       Co966   2.053       .  S
O950        C951   1.243       .  A
O950      Co1122   1.925   1_565  S
C951        C979   1.498       .  S
C952        C972   1.564       .  S
C953        C976   1.496       .  S
C954        C973   1.558       .  S
O955        C968   1.282       .  A
O956        C969   1.269       .  A
O957        C970   1.276       .  A
O957       Co965   2.056   1_564  S
O958        C971   1.284       .  A
O958      Co1123   2.031       .  S
O959        C971   1.284       .  A
O959      Co1121   1.938       .  S
O960        C970   1.268       .  A
O960       Co963   1.993   1_655  S
O961        C968   1.284       .  A
O962        C969   1.275       .  A
Co963      O1100   1.999   1_454  S
Co963      O1124   1.992   1_464  S
Co964      O1116   1.939       .  S
Co965      O1107   1.925   1_545  S
Co965      O1124   2.077       .  S
Co966      O1115   2.031       .  S
O967      Co1120   1.992   1_645  S
O967      Co1122   2.077       .  S
C968        C974   1.536       .  S
C969        C977   1.568       .  S
C970        C978   1.569       .  S
C971        C975   1.535       .  S
C972       C1071   1.570       .  S
C972       C1081   1.565       .  S
C972       C1094   1.607       .  S
C973       C1051   1.564       .  S
C973       C1061   1.568       .  S
C973       C1091   1.605       .  S
C974       C1034   1.544       .  S
C974       C1041   1.563       .  S
C974       C1054   1.560       .  S
C975       C1021   1.563       .  S
C975       C1031   1.541       .  S
C975       C1074   1.563       .  S
C976       C1001   1.564       .  S
C976       C1014   1.534       .  S
C976       C1084   1.551       .  S
C977        C991   1.588       .  S
C977       C1004   1.576       .  S
C977       C1024   1.594       .  S
C978        C981   1.583       .  S
C978        C994   1.593       .  S
C978       C1044   1.596       .  S
C979        C984   1.563       .  S
C979       C1011   1.530       .  S
C979       C1064   1.552       .  S
C980        C981   1.418       .  A
C980        C985   1.386       .  A
C980        H986   1.081       .  S
C981        C982   1.410       .  A
C982        C983   1.407       .  A
C982        H987   1.067       .  S
C983        C984   1.421       .  A
C983        H988   1.083       .  S
C984        C985   1.402       .  A
C985        H989   1.068       .  S
C990        C991   1.414       .  A
C990        C995   1.366       .  A
C990        H996   1.085       .  S
C991        C992   1.420       .  A
C992        C993   1.442       .  A
C992        H997   1.080       .  S
C993        C994   1.423       .  A
C993        H998   1.077       .  S
C994        C995   1.414       .  A
C995        H999   1.085       .  S
C1000      C1001   1.402       .  A
C1000      C1005   1.387       .  A
C1000      H1006   1.067       .  S
C1001      C1002   1.424       .  A
C1002      C1003   1.408       .  A
C1002      H1007   1.083       .  S
C1003      C1004   1.409       .  A
C1003      H1008   1.072       .  S
C1004      C1005   1.417       .  A
C1005      H1009   1.082       .  S
C1010      C1011   1.403       .  A
C1010      C1015   1.359       .  A
C1010      H1016   1.074       .  S
C1011      C1012   1.406       .  A
C1012      C1013   1.398       .  A
C1012      H1017   1.079       .  S
C1013      C1014   1.407       .  A
C1013      H1018   1.079       .  S
C1014      C1015   1.404       .  A
C1015      H1019   1.076       .  S
C1020      C1021   1.402       .  A
C1020      C1025   1.394       .  A
C1020      H1026   1.077       .  S
C1021      C1022   1.400       .  A
C1022      C1023   1.410       .  A
C1022      H1027   1.064       .  S
C1023      C1024   1.396       .  A
C1023      H1028   1.053       .  S
C1024      C1025   1.429       .  A
C1025      H1029   1.075       .  S
C1030      C1031   1.411       .  A
C1030      C1035   1.389       .  A
C1030      H1036   1.083       .  S
C1031      C1032   1.404       .  A
C1032      C1033   1.393       .  A
C1032      H1037   1.075       .  S
C1033      C1034   1.408       .  A
C1033      H1038   1.074       .  S
C1034      C1035   1.410       .  A
C1035      H1039   1.083       .  S
C1040      C1041   1.404       .  A
C1040      C1045   1.409       .  A
C1040      H1046   1.071       .  S
C1041      C1042   1.400       .  A
C1042      C1043   1.395       .  A
C1042      H1047   1.077       .  S
C1043      C1044   1.429       .  A
C1043      H1048   1.074       .  S
C1044      C1045   1.400       .  A
C1045      H1049   1.055       .  S
C1050      C1051   1.409       .  A
C1050      C1055   1.414       .  A
C1050      H1056   1.079       .  S
C1051      C1052   1.407       .  A
C1052      C1053   1.379       .  A
C1052      H1057   1.081       .  S
C1053      C1054   1.414       .  A
C1053      H1058   1.072       .  S
C1054      C1055   1.411       .  A
C1055      H1059   1.071       .  S
C1060      C1061   1.417       .  A
C1060      C1065   1.380       .  A
C1060      H1066   1.079       .  S
C1061      C1062   1.420       .  A
C1062      C1063   1.404       .  A
C1062      H1067   1.070       .  S
C1063      C1064   1.407       .  A
C1063      H1068   1.075       .  S
C1064      C1065   1.405       .  A
C1065      H1069   1.084       .  S
C1070      C1071   1.413       .  A
C1070      C1075   1.386       .  A
C1070      H1076   1.081       .  S
C1071      C1072   1.407       .  A
C1072      C1073   1.413       .  A
C1072      H1077   1.078       .  S
C1073      C1074   1.412       .  A
C1073      H1078   1.071       .  S
C1074      C1075   1.412       .  A
C1075      H1079   1.072       .  S
C1080      C1081   1.422       .  A
C1080      C1085   1.404       .  A
C1080      H1086   1.070       .  S
C1081      C1082   1.417       .  A
C1082      C1083   1.378       .  A
C1082      H1087   1.079       .  S
C1083      C1084   1.404       .  A
C1083      H1088   1.084       .  S
C1084      C1085   1.407       .  A
C1085      H1089   1.076       .  S
C1090      C1091   1.419       .  A
C1090      C1095   1.430       .  A
C1090      H1096   1.079       .  S
C1091      C1092   1.421       .  A
C1092      C1093   1.410       .  A
C1092      H1097   1.075       .  S
C1093      C1094   1.422       .  A
C1093      H1098   1.074       .  S
C1094      C1095   1.420       .  A
C1095      H1099   1.078       .  S
O1100      C1108   1.276       .  A
O1101      C1109   1.241       .  A
O1101     Co1121   1.974   1_556  S
O1102      C1110   1.244       .  A
O1103      C1111   1.264       .  A
O1104      C1110   1.276       .  A
O1105      C1111   1.242       .  A
O1106      C1109   1.264       .  A
O1106     Co1123   2.052   1_556  S
O1107      C1108   1.243       .  A
C1108      C1136   1.498       .  S
C1109      C1129   1.563       .  S
C1110      C1133   1.496       .  S
C1111      C1130   1.557       .  S
O1112      C1125   1.282       .  A
O1113      C1126   1.269       .  A
O1114      C1127   1.276       .  A
O1114     Co1122   2.056   1_565  S
O1115      C1128   1.284       .  A
O1116      C1128   1.284       .  A
O1117      C1127   1.268       .  A
O1117     Co1120   1.993   1_655  S
O1118      C1125   1.284       .  A
O1119      C1126   1.275       .  A
C1125      C1131   1.536       .  S
C1126      C1134   1.567       .  S
C1127      C1135   1.568       .  S
C1128      C1132   1.535       .  S
C1129      C1228   1.569       .  S
C1129      C1238   1.566       .  S
C1129      C1251   1.607       .  S
C1130      C1208   1.563       .  S
C1130      C1218   1.569       .  S
C1130      C1248   1.605       .  S
C1131      C1191   1.544       .  S
C1131      C1198   1.563       .  S
C1131      C1211   1.560       .  S
C1132      C1178   1.564       .  S
C1132      C1188   1.541       .  S
C1132      C1231   1.563       .  S
C1133      C1158   1.564       .  S
C1133      C1171   1.534       .  S
C1133      C1241   1.551       .  S
C1134      C1148   1.588       .  S
C1134      C1161   1.578       .  S
C1134      C1181   1.595       .  S
C1135      C1138   1.584       .  S
C1135      C1151   1.593       .  S
C1135      C1201   1.597       .  S
C1136      C1141   1.562       .  S
C1136      C1168   1.530       .  S
C1136      C1221   1.552       .  S
C1137      C1138   1.419       .  A
C1137      C1142   1.385       .  A
C1137      H1143   1.082       .  S
C1138      C1139   1.410       .  A
C1139      C1140   1.407       .  A
C1139      H1144   1.067       .  S
C1140      C1141   1.421       .  A
C1140      H1145   1.083       .  S
C1141      C1142   1.402       .  A
C1142      H1146   1.068       .  S
C1147      C1148   1.414       .  A
C1147      C1152   1.365       .  A
C1147      H1153   1.085       .  S
C1148      C1149   1.421       .  A
C1149      C1150   1.442       .  A
C1149      H1154   1.080       .  S
C1150      C1151   1.423       .  A
C1150      H1155   1.077       .  S
C1151      C1152   1.414       .  A
C1152      H1156   1.085       .  S
C1157      C1158   1.402       .  A
C1157      C1162   1.386       .  A
C1157      H1163   1.068       .  S
C1158      C1159   1.423       .  A
C1159      C1160   1.408       .  A
C1159      H1164   1.083       .  S
C1160      C1161   1.409       .  A
C1160      H1165   1.071       .  S
C1161      C1162   1.418       .  A
C1162      H1166   1.082       .  S
C1167      C1168   1.403       .  A
C1167      C1172   1.360       .  A
C1167      H1173   1.075       .  S
C1168      C1169   1.406       .  A
C1169      C1170   1.398       .  A
C1169      H1174   1.079       .  S
C1170      C1171   1.407       .  A
C1170      H1175   1.079       .  S
C1171      C1172   1.404       .  A
C1172      H1176   1.076       .  S
C1177      C1178   1.402       .  A
C1177      C1182   1.394       .  A
C1177      H1183   1.078       .  S
C1178      C1179   1.401       .  A
C1179      C1180   1.409       .  A
C1179      H1184   1.064       .  S
C1180      C1181   1.395       .  A
C1180      H1185   1.055       .  S
C1181      C1182   1.429       .  A
C1182      H1186   1.075       .  S
C1187      C1188   1.411       .  A
C1187      C1192   1.389       .  A
C1187      H1193   1.083       .  S
C1188      C1189   1.404       .  A
C1189      C1190   1.393       .  A
C1189      H1194   1.075       .  S
C1190      C1191   1.408       .  A
C1190      H1195   1.074       .  S
C1191      C1192   1.410       .  A
C1192      H1196   1.083       .  S
C1197      C1198   1.404       .  A
C1197      C1202   1.410       .  A
C1197      H1203   1.071       .  S
C1198      C1199   1.400       .  A
C1199      C1200   1.394       .  A
C1199      H1204   1.077       .  S
C1200      C1201   1.429       .  A
C1200      H1205   1.073       .  S
C1201      C1202   1.401       .  A
C1202      H1206   1.055       .  S
C1207      C1208   1.409       .  A
C1207      C1212   1.414       .  A
C1207      H1213   1.079       .  S
C1208      C1209   1.406       .  A
C1209      C1210   1.378       .  A
C1209      H1214   1.081       .  S
C1210      C1211   1.414       .  A
C1210      H1215   1.072       .  S
C1211      C1212   1.411       .  A
C1212      H1216   1.072       .  S
C1217      C1218   1.418       .  A
C1217      C1222   1.381       .  A
C1217      H1223   1.079       .  S
C1218      C1219   1.420       .  A
C1219      C1220   1.404       .  A
C1219      H1224   1.070       .  S
C1220      C1221   1.407       .  A
C1220      H1225   1.075       .  S
C1221      C1222   1.405       .  A
C1222      H1226   1.084       .  S
C1227      C1228   1.413       .  A
C1227      C1232   1.385       .  A
C1227      H1233   1.081       .  S
C1228      C1229   1.407       .  A
C1229      C1230   1.413       .  A
C1229      H1234   1.079       .  S
C1230      C1231   1.412       .  A
C1230      H1235   1.072       .  S
C1231      C1232   1.412       .  A
C1232      H1236   1.072       .  S
C1237      C1238   1.422       .  A
C1237      C1242   1.404       .  A
C1237      H1243   1.070       .  S
C1238      C1239   1.417       .  A
C1239      C1240   1.378       .  A
C1239      H1244   1.079       .  S
C1240      C1241   1.404       .  A
C1240      H1245   1.084       .  S
C1241      C1242   1.407       .  A
C1242      H1246   1.076       .  S
C1247      C1248   1.419       .  A
C1247      C1252   1.430       .  A
C1247      H1253   1.079       .  S
C1248      C1249   1.421       .  A
C1249      C1250   1.410       .  A
C1249      H1254   1.075       .  S
C1250      C1251   1.422       .  A
C1250      H1255   1.074       .  S
C1251      C1252   1.420       .  A
C1252      H1256   1.078       .  S
