geometry optimzed in LAMMPS
_audit_creation_date              2020-12-01 
_audit_creation_method            'lammps2cif' 
_symmetry_space_group_name_H-M    'P1' 
_symmetry_Int_Tables_number       1 
_symmetry_cell_setting            triclinic 
loop_ 
_symmetry_equiv_pos_as_xyz 
  x,y,z 
_cell_length_a                    24.97916906 
_cell_length_b                    24.895879505510464 
_cell_length_c                    23.654652069061473 
_cell_angle_alpha                 89.95225931476648 
_cell_angle_beta                  91.43097110350034 
_cell_angle_gamma                 91.0505446204072 
loop_ 
_atom_site_label 
_atom_site_type_symbol 
_atom_site_fract_x 
_atom_site_fract_y 
_atom_site_fract_z 
_atom_site_charge 
O1          O  0.39362250  0.44395839  0.04636225    -0.80000
O2          O  0.12753877  0.06655437  0.03365368    -0.80000
O3          O  0.05761228  0.39037804  0.04983884    -0.80100
O4          O  0.45843080  0.09067229  0.08922922    -0.80000
O5          O  0.09945215  0.46477932  0.07021284    -0.82100
O6          O  0.38792861  0.05482449  0.04922172    -0.80000
O7          O  0.05869994  0.09377461  0.07866131    -0.80000
O8          O  0.45867636  0.38757063  0.05306309    -0.80100
C9          C  0.41146639  0.39980630  0.06637361     1.09700
C10         C  0.10862907  0.09497316  0.07379836     1.09600
C11         C  0.09394318  0.41413674  0.08007037     1.09700
C12         C  0.40892779  0.08380235  0.08898462     1.09600
O13         O  0.40471229  0.05498541  0.42472245    -0.80000
O14         O  0.12701234  0.45392607  0.44925659    -0.80100
O15         O  0.45275599  0.38651783  0.43851193    -0.80000
O16         O  0.05011494  0.12318388  0.45422463    -0.80000
O17         O  0.08482354  0.05066158  0.42059589    -0.80100
O18         O  0.40651002  0.45562871  0.41589581    -0.80000
O19         O  0.43558906  0.12504795  0.46912295    -0.80000
O20         O  0.05418017  0.40476009  0.42950856    -0.80100
Co21       Co  0.41006289  0.00245701  0.48682996     1.51500
Co22       Co  0.08251370  0.50665890  0.99403371     1.51700
Co23       Co  0.50428373  0.42610070  0.49471414     1.51600
Co24       Co  0.00043661  0.09773523  0.01905467     1.51500
O25         O  0.49692980  0.51153402  0.00045412    -1.42000
C26         C  0.40344813  0.10454666  0.43138724     1.09600
C27         C  0.10376660  0.41627149  0.41954502     1.09700
C28         C  0.41632170  0.40711233  0.40647158     1.09600
C29         C  0.08058397  0.10165551  0.41784962     1.09600
C30         C  0.11534482  0.13908788  0.37460094    -0.02400
C31         C  0.13588487  0.37912015  0.37681865    -0.02400
C32         C  0.13443243  0.38013566  0.12277303    -0.02400
C33         C  0.14489191  0.12866911  0.11800471    -0.02400
C34         C  0.36613744  0.13898440  0.39036577    -0.02400
C35         C  0.37304950  0.11643546  0.13078856    -0.02400
C36         C  0.37620804  0.36418603  0.10965743    -0.02400
C37         C  0.38008469  0.37150251  0.36156763    -0.02400
C38         C  0.40085623  0.37046539  0.17249652     0.00000
C39         C  0.39417501  0.32843685  0.20936201    -0.11900
C40         C  0.36914912  0.33675701  0.26003593     0.02200
C41         C  0.38722020  0.37969007  0.29469075    -0.00100
C42         C  0.41384480  0.42169574  0.26328570    -0.11900
C43         C  0.41611717  0.41839916  0.20161957     0.02100
H44         H  0.41156193  0.29057977  0.19972776     0.15100
H45         H  0.42980523  0.45671204  0.28477535     0.15100
C46         C  0.44151729  0.45839163  0.16796493     0.36700
C47         C  0.31489579  0.31780224  0.26092716     0.36600
N48         N  0.46248245  0.48483186  0.13464907    -0.43600
N49         N  0.27112632  0.30292699  0.25570151    -0.43600
C50         C  0.37389683  0.29931307  0.09669887     0.00000
C51         C  0.33581163  0.26914357  0.12781152    -0.11900
C52         C  0.34679392  0.21731333  0.14893478     0.02200
C53         C  0.37910431  0.18095824  0.12032701    -0.00100
C54         C  0.41252843  0.20712421  0.08047677    -0.11900
C55         C  0.41332173  0.26475584  0.07174014     0.02100
H56         H  0.30617474  0.29064136  0.15022649     0.15100
H57         H  0.43953627  0.18332488  0.05647811     0.15100
C58         C  0.45210914  0.28294929  0.03174183     0.36700
C59         C  0.34978188  0.21595299  0.20912391     0.36600
N60         N  0.48452942  0.29382012  0.99928394    -0.43600
N61         N  0.35568265  0.21683085  0.25765509    -0.43600
C62         C  0.37175977  0.11902525  0.32500743     0.00000
C63         C  0.42048632  0.10811540  0.29759599    -0.11900
C64         C  0.42341686  0.09885791  0.23705505     0.02200
C65         C  0.37797800  0.10616653  0.19928870    -0.00100
C66         C  0.33040280  0.11007102  0.22985351    -0.11900
C67         C  0.32716862  0.11009811  0.28819913     0.02100
H68         H  0.45582732  0.10349690  0.32438164     0.15100
H69         H  0.29276901  0.11488623  0.20855418     0.15100
C70         C  0.28216050  0.08106994  0.30602459     0.36700
C71         C  0.46869516  0.06921875  0.22062689     0.36600
N72         N  0.25077989  0.05117278  0.32188924    -0.43600
N73         N  0.50657025  0.04414320  0.21411152    -0.43600
C74         C  0.38730473  0.19964736  0.39597873     0.00000
C75         C  0.42450170  0.22279312  0.35849697    -0.11900
C76         C  0.42891402  0.27948683  0.35084642     0.02200
C77         C  0.39534709  0.31312328  0.37973880    -0.00100
C78         C  0.37693632  0.29222734  0.43010708    -0.11900
C79         C  0.36866545  0.23698356  0.43613298     0.02100
H80         H  0.44760908  0.19671773  0.33432430     0.15100
H81         H  0.36002384  0.31927838  0.46028160     0.15100
C82         C  0.33460551  0.22541616  0.48088661     0.36700
C83         C  0.46578144  0.30541631  0.31401219     0.36600
N84         N  0.30780610  0.22846316  0.51933639    -0.43600
N85         N  0.48949872  0.33105625  0.28203344    -0.43600
C86         C  0.20325752  0.10921061  0.10474241     0.00000
C87         C  0.22554695  0.06027464  0.12445716    -0.11900
C88         C  0.28232422  0.05622347  0.12908948     0.02200
C89         C  0.31450424  0.09968038  0.10982257    -0.00100
C90         C  0.29084240  0.12666579  0.06550501    -0.11900
C91         C  0.23571939  0.13507695  0.06483423     0.02100
H92         H  0.20000247  0.02956324  0.14253398     0.15100
H93         H  0.31654647  0.13906336  0.03239799     0.15100
C94         C  0.21409920  0.16986382  0.02336484     0.36700
C95         C  0.30623646  0.01740343  0.16553248     0.36600
N96         N  0.19864995  0.20019292  0.99063730    -0.43600
N97         N  0.32896553  0.49380500  0.20019676    -0.43600
C98         C  0.14129705  0.19405034  0.10868555     0.00000
C99         C  0.09535710  0.22301122  0.08930930    -0.11900
C100        C  0.09056105  0.28037307  0.09858376     0.02200
C101        C  0.13634015  0.31508759  0.10812594    -0.00100
C102        C  0.18423535  0.28549230  0.11796607    -0.11900
C103        C  0.18386006  0.22892342  0.12717354     0.02100
H104        H  0.06047421  0.20067148  0.07431277     0.15100
H105        H  0.21987589  0.30656708  0.13209896     0.15100
C106        C  0.21909106  0.20981466  0.17051561     0.36700
C107        C  0.04066279  0.29903131  0.11895510     0.36600
N108        N  0.24199859  0.19331770  0.20932468    -0.43600
N109        N  0.50346692  0.31514278  0.14098426    -0.43600
C110        C  0.19602758  0.40178597  0.11844870     0.00000
C111        C  0.22340072  0.40276474  0.06724614    -0.11900
C112        C  0.27931173  0.39257512  0.06419176     0.02200
C113        C  0.31387614  0.38448094  0.11167626    -0.00100
C114        C  0.28734624  0.39523665  0.16254353    -0.11900
C115        C  0.23220390  0.40792011  0.16550744     0.02100
H116        H  0.20214477  0.41406922  0.02903591     0.15100
H117        H  0.31003848  0.39935964  0.20099979     0.15100
C118        C  0.21889423  0.44147552  0.21175677     0.36700
C119        C  0.30158593  0.39953207  0.01167896     0.36600
N120        N  0.21071233  0.47005865  0.24860623    -0.43600
N121        N  0.32279987  0.41070609  0.47125125    -0.43600
C122        C  0.12900514  0.39300723  0.31070411     0.00000
C123        C  0.16104382  0.36127155  0.27699691    -0.11900
C124        C  0.14396280  0.34619895  0.22334785     0.02200
C125        C  0.11905596  0.38309356  0.18764269    -0.00100
C126        C  0.08859479  0.42172063  0.21708795    -0.11900
C127        C  0.08836831  0.42173157  0.27868546     0.02100
H128        H  0.19000333  0.33660477  0.29704767     0.15100
H129        H  0.06409022  0.44949714  0.19320595     0.15100
C130        C  0.04811705  0.45184141  0.30672467     0.36700
C131        C  0.12479299  0.29208998  0.21908925     0.36600
N132        N  0.01772121  0.47763127  0.33027084    -0.43600
N133        N  0.10859814  0.24860894  0.21477890    -0.43600
C134        C  0.20035529  0.38268851  0.38909406     0.00000
C135        C  0.23300914  0.42817699  0.37408514    -0.11900
C136        C  0.28873344  0.42431608  0.36175628     0.02200
C137        C  0.31604158  0.37580268  0.36714343    -0.00100
C138        C  0.28166733  0.33099793  0.37621900    -0.11900
C139        C  0.23068748  0.33577947  0.39808103     0.02100
H140        H  0.21687665  0.46717481  0.37376184     0.15100
H141        H  0.29575195  0.29089257  0.37276075     0.15100
C142        C  0.23159645  0.31295804  0.45296053     0.36700
C143        C  0.31999669  0.46918312  0.34391113     0.36600
N144        N  0.23543925  0.29959315  0.49952514    -0.43600
N145        N  0.35111007  0.00063958  0.32918902    -0.43600
C146        C  0.11242489  0.12201294  0.30814465     0.00000
C147        C  0.07075627  0.12633632  0.26812054    -0.11900
C148        C  0.08028118  0.13157280  0.20820208     0.02200
C149        C  0.13018826  0.11777217  0.18434033    -0.00100
C150        C  0.16518962  0.09513292  0.22673039    -0.11900
C151        C  0.15179912  0.09205253  0.28491085     0.02100
H152        H  0.03120761  0.12805142  0.28422326     0.15100
H153        H  0.20362604  0.07985610  0.21830846     0.15100
C154        C  0.14815963  0.04144127  0.31146188     0.36700
C155        C  0.03799264  0.15344337  0.17409503     0.36600
N156        N  0.14182346  0.00446965  0.33946554    -0.43600
N157        N  0.00221555  0.17267608  0.15045575    -0.43600
C158        C  0.30176208  0.13878307  0.40369568     0.00000
C159        C  0.27226310  0.17795627  0.37468708    -0.11900
C160        C  0.21605430  0.17730840  0.36777066     0.02200
C161        C  0.18018571  0.13895209  0.39124723    -0.00100
C162        C  0.20868455  0.09912465  0.42320191    -0.11900
C163        C  0.26726778  0.09879478  0.42951755     0.02100
H164        H  0.29454583  0.20641470  0.34951905     0.15100
H165        H  0.18596547  0.06650512  0.44168079     0.15100
C166        C  0.28926469  0.05390131  0.45875216     0.36700
C167        C  0.19835546  0.21395565  0.32771968     0.36600
N168        N  0.30444780  0.01740494  0.98403220    -0.43600
N169        N  0.18784934  0.24344069  0.29275229    -0.43600
C170        C  0.09568443  0.20022126  0.38084998     0.00000
C171        C  0.10467400  0.22876333  0.43173354    -0.11900
C172        C  0.11307898  0.28552322  0.43135159     0.02200
C173        C  0.11372534  0.31713377  0.38235584    -0.00100
C174        C  0.08803373  0.29030727  0.33800046    -0.11900
C175        C  0.07671944  0.23498912  0.33677828     0.02100
H176        H  0.10624356  0.20711709  0.47117684     0.15100
H177        H  0.07510887  0.31329188  0.30315540     0.15100
C178        C  0.03629530  0.22257647  0.29517899     0.36700
C179        C  0.12318067  0.31393018  0.47964241     0.36600
N180        N  0.00411553  0.21841071  0.25924460    -0.43600
N181        N  0.13952967  0.34858232  0.00634504    -0.43600
O182        O  0.39360506  0.44393578  0.54634390    -0.80000
O183        O  0.12752950  0.06652871  0.53366379    -0.80000
O184        O  0.05760103  0.39035695  0.54981627    -0.80100
O185        O  0.45841669  0.09065988  0.58922000    -0.80000
O186        O  0.09941725  0.46476288  0.57021945    -0.82100
O187        O  0.38791235  0.05480242  0.54922261    -0.80000
O188        O  0.05868755  0.09377617  0.57865091    -0.80000
O189        O  0.45866425  0.38755689  0.55306053    -0.80100
C190        C  0.41144996  0.39978617  0.56636095     1.09700
C191        C  0.10861931  0.09495325  0.57380185     1.09600
C192        C  0.09392170  0.41411525  0.58006347     1.09700
C193        C  0.40891466  0.08378385  0.58897996     1.09600
O194        O  0.40474888  0.05498419  0.92471840    -0.80000
O195        O  0.12704105  0.45392555  0.94924995    -0.80100
O196        O  0.45279985  0.38652827  0.93850087    -0.80000
O197        O  0.05014416  0.12317595  0.95423405    -0.80000
O198        O  0.08483182  0.05064983  0.92058834    -0.80100
O199        O  0.40651487  0.45562274  0.91591010    -0.80000
O200        O  0.43561133  0.12505082  0.96912181    -0.80000
O201        O  0.05421219  0.40474699  0.92952777    -0.80100
Co202      Co  0.41008477  0.00246640  0.98683633     1.51500
Co203      Co  0.08248903  0.50665617  0.49403920     1.51700
Co204      Co  0.50430664  0.42610985  0.99472177     1.51600
Co205      Co  0.00041718  0.09773049  0.51904751     1.51500
O206        O  0.49690730  0.51152692  0.50044543    -1.42000
C207        C  0.40347645  0.10454520  0.93138208     1.09600
C208        C  0.10379619  0.41625999  0.91955123     1.09700
C209        C  0.41635458  0.40711426  0.90646853     1.09600
C210        C  0.08060513  0.10164358  0.91785267     1.09600
C211        C  0.11536899  0.13906785  0.87460557    -0.02400
C212        C  0.13591127  0.37909857  0.87682384    -0.02400
C213        C  0.13441449  0.38011043  0.62276917    -0.02400
C214        C  0.14488478  0.12864132  0.61801009    -0.02400
C215        C  0.36616295  0.13897594  0.89035538    -0.02400
C216        C  0.37304040  0.11641265  0.63078491    -0.02400
C217        C  0.37619174  0.36416622  0.60964572    -0.02400
C218        C  0.38012591  0.37149419  0.86156487    -0.02400
C219        C  0.40084442  0.37044933  0.67248234     0.00000
C220        C  0.39414893  0.32842607  0.70934882    -0.11900
C221        C  0.36914819  0.33675555  0.76003294     0.02200
C222        C  0.38724405  0.37968231  0.79468449    -0.00100
C223        C  0.41387043  0.42167934  0.76326865    -0.11900
C224        C  0.41612120  0.41838143  0.70160093     0.02100
H225        H  0.41154141  0.29056971  0.69972293     0.15100
H226        H  0.42984277  0.45669438  0.78475077     0.15100
C227        C  0.44150105  0.45837875  0.66793680     0.36700
C228        C  0.31490985  0.31776589  0.76097274     0.36600
N229        N  0.46244615  0.48482765  0.63461460    -0.43600
N230        N  0.27114887  0.30285505  0.75578813    -0.43600
C231        C  0.37388168  0.29929189  0.59669218     0.00000
C232        C  0.33580226  0.26912121  0.62781322    -0.11900
C233        C  0.34678747  0.21728961  0.64893131     0.02200
C234        C  0.37909573  0.18093604  0.62032132    -0.00100
C235        C  0.41251861  0.20710456  0.58047027    -0.11900
C236        C  0.41330469  0.26473625  0.57172845     0.02100
H237        H  0.30616878  0.29061736  0.65023699     0.15100
H238        H  0.43952923  0.18330783  0.55647300     0.15100
C239        C  0.45208131  0.28293268  0.53171960     0.36700
C240        C  0.34978352  0.21592548  0.70911830     0.36600
N241        N  0.48449451  0.29380623  0.49925495    -0.43600
N242        N  0.35569104  0.21679960  0.75764801    -0.43600
C243        C  0.37177494  0.11899919  0.82500135     0.00000
C244        C  0.42049573  0.10807657  0.79758556    -0.11900
C245        C  0.42342060  0.09882184  0.73704410     0.02200
C246        C  0.37797776  0.10613733  0.69928323    -0.00100
C247        C  0.33040707  0.11003939  0.72985447    -0.11900
C248        C  0.32717897  0.11007209  0.78820023     0.02100
H249        H  0.45583777  0.10345455  0.82436918     0.15100
H250        H  0.29276965  0.11485007  0.70855956     0.15100
C251        C  0.28217276  0.08104604  0.80603456     0.36700
C252        C  0.46869811  0.06918273  0.72061055     0.36600
N253        N  0.25079251  0.05114986  0.82190211    -0.43600
N254        N  0.50657202  0.04410646  0.71408867    -0.43600
C255        C  0.38733622  0.19963932  0.89595201     0.00000
C256        C  0.42451213  0.22277909  0.85844351    -0.11900
C257        C  0.42894251  0.27947258  0.85079914     0.02200
C258        C  0.39540903  0.31311774  0.87972645    -0.00100
C259        C  0.37702457  0.29222085  0.93010496    -0.11900
C260        C  0.36873192  0.23697775  0.93612367     0.02100
H261        H  0.44757878  0.19670098  0.83423595     0.15100
H262        H  0.36013051  0.31927546  0.96028972     0.15100
C263        C  0.33465372  0.22542463  0.98086586     0.36700
C264        C  0.46579063  0.30538376  0.81392594     0.36600
N265        N  0.30783785  0.22848732  0.01930122    -0.43600
N266        N  0.48950456  0.33099120  0.78191545    -0.43600
C267        C  0.20324828  0.10918107  0.60474343     0.00000
C268        C  0.22553847  0.06024463  0.62445664    -0.11900
C269        C  0.28231598  0.05619661  0.62908880     0.02200
C270        C  0.31449351  0.09965647  0.60982309    -0.00100
C271        C  0.29082996  0.12663854  0.56550309    -0.11900
C272        C  0.23570574  0.13504676  0.56483225     0.02100
H273        H  0.19999561  0.02953201  0.64253324     0.15100
H274        H  0.31653333  0.13903631  0.53239522     0.15100
C275        C  0.21407775  0.16984031  0.52337182     0.36700
C276        C  0.30622890  0.01737161  0.66552572     0.36600
N277        N  0.19861051  0.20018017  0.49066424    -0.43600
N278        N  0.32895767  0.49376130  0.70018015    -0.43600
C279        C  0.14128588  0.19402316  0.60869100     0.00000
C280        C  0.09534774  0.22298158  0.58930348    -0.11900
C281        C  0.09054963  0.28034490  0.59856883     0.02200
C282        C  0.13632633  0.31506201  0.60811638    -0.00100
C283        C  0.18422238  0.28546765  0.61795984    -0.11900
C284        C  0.18384826  0.22889905  0.62717260     0.02100
H285        H  0.06046574  0.20064041  0.57430717     0.15100
H286        H  0.21986446  0.30654269  0.63208707     0.15100
C287        C  0.21908942  0.20978912  0.67050343     0.36700
C288        C  0.04064827  0.29900150  0.61893253     0.36600
N289        N  0.24200699  0.19328395  0.70930157    -0.43600
N290        N  0.50344967  0.31510872  0.64095838    -0.43600
C291        C  0.19600988  0.40176376  0.61845132     0.00000
C292        C  0.22338312  0.40276209  0.56724968    -0.11900
C293        C  0.27929236  0.39256726  0.56418885     0.02200
C294        C  0.31385838  0.38445667  0.61166995    -0.00100
C295        C  0.28732825  0.39519207  0.66254269    -0.11900
C296        C  0.23218761  0.40787868  0.66551200     0.02100
H297        H  0.20212895  0.41409267  0.52904676     0.15100
H298        H  0.31002076  0.39930618  0.70099965     0.15100
C299        C  0.21888850  0.44143426  0.71176513     0.36700
C300        C  0.30156049  0.39953853  0.51167495     0.36600
N301        N  0.21071936  0.47001763  0.74861815    -0.43600
N302        N  0.32283420  0.41068713  0.97125729    -0.43600
C303        C  0.12902067  0.39297510  0.81070691     0.00000
C304        C  0.16104225  0.36122442  0.77699560    -0.11900
C305        C  0.14394912  0.34616030  0.72334490     0.02200
C306        C  0.11904364  0.38306144  0.68764361    -0.00100
C307        C  0.08859380  0.42169071  0.71709761    -0.11900
C308        C  0.08837977  0.42170038  0.77869555     0.02100
H309        H  0.18998913  0.33654190  0.79705102     0.15100
H310        H  0.06408546  0.44946851  0.69322170     0.15100
C311        C  0.04812744  0.45179913  0.80674492     0.36700
C312        C  0.12476685  0.29205730  0.71908157     0.36600
N313        N  0.01773050  0.47757662  0.83030410    -0.43600
N314        N  0.10856824  0.24857909  0.71475920    -0.43600
C315        C  0.20038582  0.38266747  0.88908707     0.00000
C316        C  0.23304178  0.42814514  0.87405917    -0.11900
C317        C  0.28876713  0.42429080  0.86174469     0.02200
C318        C  0.31608229  0.37578383  0.86715708    -0.00100
C319        C  0.28171407  0.33098193  0.87627234    -0.11900
C320        C  0.23072252  0.33576668  0.89810795     0.02100
H321        H  0.21690237  0.46714481  0.87370200     0.15100
H322        H  0.29580154  0.29087447  0.87284222     0.15100
C323        C  0.23160808  0.31296144  0.95299515     0.36700
C324        C  0.32002371  0.46915581  0.84387868     0.36600
N325        N  0.23543567  0.29960732  0.99956475    -0.43600
N326        N  0.35113333  0.00061058  0.82914642    -0.43600
C327        C  0.11243945  0.12198632  0.80815008     0.00000
C328        C  0.07076380  0.12629374  0.76812993    -0.11900
C329        C  0.08028256  0.13153370  0.70821020     0.02200
C330        C  0.13018870  0.11773884  0.68434602    -0.00100
C331        C  0.16519300  0.09510164  0.72673420    -0.11900
C332        C  0.15181126  0.09202367  0.78491565     0.02100
H333        H  0.03121557  0.12800721  0.78423658     0.15100
H334        H  0.20363154  0.07982486  0.71830979     0.15100
C335        C  0.14817058  0.04141269  0.81146781     0.36700
C336        C  0.03799317  0.15340481  0.67410202     0.36600
N337        N  0.14182988  0.00444289  0.83947339    -0.43600
N338        N  0.00221787  0.17263954  0.65046032    -0.43600
C339        C  0.30178972  0.13877918  0.90369393     0.00000
C340        C  0.27228595  0.17794802  0.87468313    -0.11900
C341        C  0.21607678  0.17728838  0.86776255     0.02200
C342        C  0.18021231  0.13893221  0.89124708    -0.00100
C343        C  0.20871566  0.09911364  0.92320996    -0.11900
C344        C  0.26729998  0.09878966  0.92952138     0.02100
H345        H  0.29456411  0.20640945  0.84951341     0.15100
H346        H  0.18599942  0.06649420  0.94169344     0.15100
C347        C  0.28930460  0.05389619  0.95874978     0.36700
C348        C  0.19836705  0.21391464  0.82769481     0.36600
N349        N  0.30439894  0.01741348  0.48404624    -0.43600
N350        N  0.18782572  0.24336936  0.79271015    -0.43600
C351        C  0.09571397  0.20020058  0.88086112     0.00000
C352        C  0.10470517  0.22874132  0.93174511    -0.11900
C353        C  0.11311015  0.28550111  0.93136212     0.02200
C354        C  0.11375052  0.31711195  0.88236712    -0.00100
C355        C  0.08804156  0.29028686  0.83802065    -0.11900
C356        C  0.07673717  0.23496678  0.83679741     0.02100
H357        H  0.10627344  0.20709535  0.97118908     0.15100
H358        H  0.07510146  0.31327390  0.80318324     0.15100
C359        C  0.03632578  0.22253968  0.79519507     0.36700
C360        C  0.12318698  0.31391482  0.97965217     0.36600
N361        N  0.00416135  0.21836546  0.75924702    -0.43600
N362        N  0.13954730  0.34858385  0.50634035    -0.43600
O363        O  0.39361579  0.94396954  0.04637931    -0.80000
O364        O  0.12751669  0.56656216  0.03364810    -0.80000
O365        O  0.05760343  0.89038664  0.04984963    -0.80100
O366        O  0.45841129  0.59067524  0.08922598    -0.80000
O367        O  0.09944156  0.96478800  0.07023009    -0.82100
O368        O  0.38791425  0.55481556  0.04921947    -0.80000
O369        O  0.05867890  0.59376308  0.07866893    -0.80000
O370        O  0.45866110  0.88757083  0.05306232    -0.80100
C371        C  0.41145516  0.89981190  0.06638259     1.09700
C372        C  0.10860620  0.59497394  0.07379907     1.09600
C373        C  0.09393192  0.91414523  0.08008492     1.09700
C374        C  0.40890887  0.58380015  0.08898060     1.09600
O375        O  0.40470433  0.55498583  0.42471878    -0.80000
O376        O  0.12700327  0.95392048  0.44927490    -0.80100
O377        O  0.45275593  0.88652075  0.43850989    -0.80000
O378        O  0.05011232  0.62317916  0.45423391    -0.80000
O379        O  0.08480577  0.55065749  0.42058345    -0.80100
O380        O  0.40649064  0.95562454  0.41591244    -0.80000
O381        O  0.43558232  0.62504777  0.46911895    -0.80000
O382        O  0.05416896  0.90476189  0.42951675    -0.80100
Co383      Co  0.41006240  0.50245327  0.48682076     1.51500
Co384      Co  0.08251733  0.00666587  0.99404771     1.51700
Co385      Co  0.50427635  0.92610313  0.49471968     1.51600
Co386      Co  0.00042517  0.59773294  0.01905691     1.51500
O387        O  0.49693256  0.01153516  0.00045204    -1.42000
C388        C  0.40343931  0.60454667  0.43138477     1.09600
C389        C  0.10375626  0.91627025  0.41955917     1.09700
C390        C  0.41631302  0.90711227  0.40647851     1.09600
C391        C  0.08057341  0.60165256  0.41784996     1.09600
C392        C  0.11533347  0.63908753  0.37460562    -0.02400
C393        C  0.13587421  0.87911948  0.37683509    -0.02400
C394        C  0.13441902  0.88014274  0.12278779    -0.02400
C395        C  0.14486686  0.62867361  0.11800518    -0.02400
C396        C  0.36612585  0.63898349  0.39036416    -0.02400
C397        C  0.37302858  0.61643291  0.13078564    -0.02400
C398        C  0.37619635  0.86418837  0.10966597    -0.02400
C399        C  0.38007403  0.87150142  0.36157751    -0.02400
C400        C  0.40084231  0.87046141  0.17250645     0.00000
C401        C  0.39413535  0.82843545  0.20936930    -0.11900
C402        C  0.36911709  0.83676300  0.26004506     0.02200
C403        C  0.38720195  0.87969075  0.29470047    -0.00100
C404        C  0.41384040  0.92168791  0.26329710    -0.11900
C405        C  0.41611760  0.91839018  0.20163166     0.02100
H406        H  0.41153029  0.79057907  0.19974632     0.15100
H407        H  0.42980836  0.95670005  0.28478843     0.15100
C408        C  0.44153127  0.95837734  0.16798082     0.36700
C409        C  0.31486507  0.81780638  0.26094578     0.36600
N410        N  0.46250259  0.98481493  0.13466694    -0.43600
N411        N  0.27109704  0.80292602  0.25572509    -0.43600
C412        C  0.37388273  0.79931500  0.09670213     0.00000
C413        C  0.33579199  0.76914487  0.12780772    -0.11900
C414        C  0.34677000  0.71731293  0.14892987     0.02200
C415        C  0.37908348  0.68095701  0.12032581    -0.00100
C416        C  0.41251181  0.70712386  0.08047988    -0.11900
C417        C  0.41330879  0.76475633  0.07174673     0.02100
H418        H  0.30615388  0.79064241  0.15022192     0.15100
H419        H  0.43951986  0.68332467  0.05648155     0.15100
C420        C  0.45209974  0.78294866  0.03175166     0.36700
C421        C  0.34974588  0.71595131  0.20911906     0.36600
N422        N  0.48452148  0.79381881  0.99929509    -0.43600
N423        N  0.35563366  0.71683001  0.25765161    -0.43600
C424        C  0.37174516  0.61902299  0.32500582     0.00000
C425        C  0.42046988  0.60811027  0.29759326    -0.11900
C426        C  0.42339937  0.59885336  0.23705248     0.02200
C427        C  0.37795973  0.60616401  0.19928655    -0.00100
C428        C  0.33038598  0.61006763  0.22985377    -0.11900
C429        C  0.32715311  0.61009559  0.28819962     0.02100
H430        H  0.45581088  0.60349060  0.32437886     0.15100
H431        H  0.29275144  0.61488357  0.20855561     0.15100
C432        C  0.28214821  0.58106503  0.30602874     0.36700
C433        C  0.46867768  0.56921269  0.22062671     0.36600
N434        N  0.25077221  0.55116589  0.32189879    -0.43600
N435        N  0.50655326  0.54413651  0.21411548    -0.43600
C436        C  0.38729360  0.69964618  0.39597395     0.00000
C437        C  0.42447896  0.72279311  0.35848108    -0.11900
C438        C  0.42889682  0.77948603  0.35083599     0.02200
C439        C  0.39534161  0.81312299  0.37974278    -0.00100
C440        C  0.37694070  0.79222441  0.43011382    -0.11900
C441        C  0.36866548  0.73698065  0.43613600     0.02100
H442        H  0.44757295  0.69671924  0.33429301     0.15100
H443        H  0.36003421  0.81927468  0.46029353     0.15100
C444        C  0.33459948  0.72541476  0.48088474     0.36700
C445        C  0.46575937  0.80541175  0.31399242     0.36600
N446        N  0.30779252  0.72846354  0.51932823    -0.43600
N447        N  0.48947827  0.83104323  0.28200748    -0.43600
C448        C  0.20323330  0.60921502  0.10474319     0.00000
C449        C  0.22552226  0.56027813  0.12445802    -0.11900
C450        C  0.28230009  0.55622474  0.12908865     0.02200
C451        C  0.31448226  0.59967900  0.10982008    -0.00100
C452        C  0.29081952  0.62666874  0.06550627    -0.11900
C453        C  0.23569673  0.63508238  0.06483722     0.02100
H454        H  0.19997760  0.52956879  0.14253834     0.15100
H455        H  0.31652320  0.63906618  0.03239959     0.15100
C456        C  0.21407931  0.66987058  0.02336804     0.36700
C457        C  0.30621346  0.51740455  0.16553063     0.36600
N458        N  0.19863661  0.70019917  0.99063678    -0.43600
N459        N  0.32898575  0.99380342  0.20020005    -0.43600
C460        C  0.14126968  0.69405614  0.10868806     0.00000
C461        C  0.09532695  0.72302083  0.08932355    -0.11900
C462        C  0.09053628  0.78038414  0.09859956     0.02200
C463        C  0.13631899  0.81509477  0.10814026    -0.00100
C464        C  0.18421192  0.78549624  0.11797560    -0.11900
C465        C  0.18383400  0.72892701  0.12717655     0.02100
H466        H  0.06044122  0.70068343  0.07433073     0.15100
H467        H  0.21985401  0.80656807  0.13210908     0.15100
C468        C  0.21906509  0.70981396  0.17051520     0.36700
C469        C  0.04063977  0.79905111  0.11896790     0.36600
N470        N  0.24197159  0.69330989  0.20932117    -0.43600
N471        N  0.50344665  0.81517280  0.14099132    -0.43600
C472        C  0.19601599  0.90178822  0.11846055     0.00000
C473        C  0.22338871  0.90276394  0.06725719    -0.11900
C474        C  0.27930055  0.89257646  0.06420398     0.02200
C475        C  0.31386497  0.88448416  0.11168762    -0.00100
C476        C  0.28733567  0.89524123  0.16255487    -0.11900
C477        C  0.23219340  0.90792429  0.16551834     0.02100
H478        H  0.20213236  0.91406255  0.02904553     0.15100
H479        H  0.31002763  0.89936620  0.20101050     0.15100
C480        C  0.21888558  0.94148001  0.21176708     0.36700
C481        C  0.30157811  0.89952882  0.01169305     0.36600
N482        N  0.21070594  0.97006237  0.24861735    -0.43600
N483        N  0.32280021  0.91069509  0.47126907    -0.43600
C484        C  0.12899414  0.89300790  0.31072127     0.00000
C485        C  0.16102996  0.86126987  0.27701412    -0.11900
C486        C  0.14394886  0.84620313  0.22336302     0.02200
C487        C  0.11904618  0.88310192  0.18765904    -0.00100
C488        C  0.08858762  0.92172964  0.21710598    -0.11900
C489        C  0.08836003  0.92173724  0.27870345     0.02100
H490        H  0.18997830  0.83659249  0.29706916     0.15100
H491        H  0.06408542  0.94950865  0.19322504     0.15100
C492        C  0.04810891  0.95184719  0.30674299     0.36700
C493        C  0.12476984  0.79209786  0.21910167     0.36600
N494        N  0.01771259  0.97763678  0.33028881    -0.43600
N495        N  0.10856967  0.74861932  0.21478447    -0.43600
C496        C  0.20034472  0.88268831  0.38911164     0.00000
C497        C  0.23299968  0.92817581  0.37410161    -0.11900
C498        C  0.28872346  0.92431405  0.36177315     0.02200
C499        C  0.31603144  0.87580059  0.36716160    -0.00100
C500        C  0.28165808  0.83099692  0.37624689    -0.11900
C501        C  0.23067684  0.83578029  0.39810547     0.02100
H502        H  0.21686964  0.96717504  0.37377653     0.15100
H503        H  0.29574214  0.79089073  0.37279357     0.15100
C504        C  0.23158149  0.81296179  0.45298684     0.36700
C505        C  0.31998624  0.96917992  0.34392289     0.36600
N506        N  0.23542086  0.79959767  0.49955216    -0.43600
N507        N  0.35111864  0.50064595  0.32918064    -0.43600
C508        C  0.11241091  0.62201452  0.30814822     0.00000
C509        C  0.07073814  0.62633145  0.26812663    -0.11900
C510        C  0.08025906  0.63156991  0.20820685     0.02200
C511        C  0.13016662  0.61777622  0.18434173    -0.00100
C512        C  0.16517508  0.59514607  0.22673020    -0.11900
C513        C  0.15178920  0.59206155  0.28491064     0.02100
H514        H  0.03119024  0.62804542  0.28423177     0.15100
H515        H  0.20361573  0.57987954  0.21830702     0.15100
C516        C  0.14815498  0.54144630  0.31145334     0.36700
C517        C  0.03796709  0.65343756  0.17410216     0.36600
N518        N  0.14182677  0.50446910  0.33945083    -0.43600
N519        N  0.00218645  0.67266887  0.15046767    -0.43600
C520        C  0.30175093  0.63878284  0.40369735     0.00000
C521        C  0.27225090  0.67795627  0.37468993    -0.11900
C522        C  0.21604208  0.67730718  0.36777406     0.02200
C523        C  0.18017442  0.63895085  0.39125137    -0.00100
C524        C  0.20867350  0.59912486  0.42320732    -0.11900
C525        C  0.26725689  0.59879535  0.42952183     0.02100
H526        H  0.29453216  0.70641656  0.34952275     0.15100
H527        H  0.18595433  0.56650604  0.44168756     0.15100
C528        C  0.28925285  0.55390346  0.45876005     0.36700
C529        C  0.19833998  0.71394926  0.32771953     0.36600
N530        N  0.30443087  0.51740919  0.98404726    -0.43600
N531        N  0.18782247  0.74342464  0.29274687    -0.43600
C532        C  0.09567358  0.70022093  0.38086085     0.00000
C533        C  0.10466116  0.72876090  0.43174633    -0.11900
C534        C  0.11306677  0.78552109  0.43136642     0.02200
C535        C  0.11371317  0.81713339  0.38237180    -0.00100
C536        C  0.08801605  0.79031000  0.33801775    -0.11900
C537        C  0.07670561  0.73499057  0.33679319     0.02100
H538        H  0.10622825  0.70711363  0.47118910     0.15100
H539        H  0.07508645  0.81329792  0.30317691     0.15100
C540        C  0.03628717  0.72257403  0.29519177     0.36700
C541        C  0.12316344  0.81392796  0.47965808     0.36600
N542        N  0.00411457  0.71840728  0.25925077    -0.43600
N543        N  0.13950868  0.84858110  0.00635884    -0.43600
O544        O  0.39359808  0.94394714  0.54636211    -0.80000
O545        O  0.12750705  0.56653609  0.53365662    -0.80000
O546        O  0.05759210  0.89036523  0.54982786    -0.80100
O547        O  0.45839715  0.59066165  0.58921678    -0.80000
O548        O  0.09940650  0.96477117  0.57023843    -0.82100
O549        O  0.38789812  0.55479308  0.54921944    -0.80000
O550        O  0.05866639  0.59376281  0.57865831    -0.80000
O551        O  0.45864858  0.88755688  0.55305917    -0.80100
C552        C  0.41143847  0.89979165  0.56637013     1.09700
C553        C  0.10859627  0.59495266  0.57380184     1.09600
C554        C  0.09391032  0.91412317  0.58007904     1.09700
C555        C  0.40889563  0.58378080  0.58897551     1.09600
O556        O  0.40473973  0.55498441  0.92471534    -0.80000
O557        O  0.12703224  0.95391982  0.94926668    -0.80100
O558        O  0.45279906  0.88653105  0.93849983    -0.80000
O559        O  0.05014109  0.62317119  0.95424276    -0.80000
O560        O  0.08481494  0.55064556  0.92057730    -0.80100
O561        O  0.40649657  0.95561886  0.91592536    -0.80000
O562        O  0.43560446  0.62505073  0.96911723    -0.80000
O563        O  0.05420132  0.90474814  0.92953533    -0.80100
Co564      Co  0.41008364  0.50246272  0.98682815     1.51500
Co565      Co  0.08249304  0.00666342  0.49405502     1.51700
Co566      Co  0.50429926  0.92611227  0.99472786     1.51600
Co567      Co  0.00040581  0.59772804  0.51904951     1.51500
O568        O  0.49690935  0.01152818  0.50044432    -1.42000
C569        C  0.40346709  0.60454511  0.93137941     1.09600
C570        C  0.10378615  0.91625807  0.91956444     1.09700
C571        C  0.41634599  0.90711407  0.90647532     1.09600
C572        C  0.08059472  0.60164027  0.91785313     1.09600
C573        C  0.11535781  0.63906657  0.87460972    -0.02400
C574        C  0.13590075  0.87909683  0.87683948    -0.02400
C575        C  0.13440106  0.88011631  0.62278420    -0.02400
C576        C  0.14485971  0.62864401  0.61801000    -0.02400
C577        C  0.36615069  0.63897469  0.89035335    -0.02400
C578        C  0.37301887  0.61640923  0.63078137    -0.02400
C579        C  0.37617978  0.86416825  0.60965439    -0.02400
C580        C  0.38011549  0.87149262  0.86157451    -0.02400
C581        C  0.40083027  0.87044500  0.67249226     0.00000
C582        C  0.39410971  0.82842401  0.70935603    -0.11900
C583        C  0.36911609  0.83676084  0.76004178     0.02200
C584        C  0.38722556  0.87968240  0.79469403    -0.00100
C585        C  0.41386466  0.92167145  0.76327999    -0.11900
C586        C  0.41612006  0.91837252  0.70161312     0.02100
H587        H  0.41150679  0.79056723  0.69973978     0.15100
H588        H  0.42984312  0.95668296  0.78476357     0.15100
C589        C  0.44151080  0.95836632  0.66795307     0.36700
C590        C  0.31487876  0.81777021  0.76099005     0.36600
N591        N  0.46246019  0.98481439  0.63463320    -0.43600
N592        N  0.27111905  0.80285510  0.75580936    -0.43600
C593        C  0.37386687  0.79929348  0.59669534     0.00000
C594        C  0.33578143  0.76912230  0.62780893    -0.11900
C595        C  0.34676177  0.71728855  0.64892557     0.02200
C596        C  0.37907382  0.68093415  0.62031984    -0.00100
C597        C  0.41250138  0.70710372  0.58047375    -0.11900
C598        C  0.41329115  0.76473627  0.57173545     0.02100
H599        H  0.30614683  0.79061833  0.65023165     0.15100
H600        H  0.43951267  0.68330718  0.55647736     0.15100
C601        C  0.45207140  0.78293163  0.53173011     0.36700
C602        C  0.34974378  0.71592256  0.70911268     0.36600
N603        N  0.48448621  0.79380461  0.49926703    -0.43600
N604        N  0.35563651  0.71679746  0.75764396    -0.43600
C605        C  0.37175915  0.61899630  0.82499924     0.00000
C606        C  0.42047820  0.60807031  0.79758260    -0.11900
C607        C  0.42340160  0.59881614  0.73704111     0.02200
C608        C  0.37795821  0.60613371  0.69928049    -0.00100
C609        C  0.33038812  0.61003394  0.72985361    -0.11900
C610        C  0.32716208  0.61006823  0.78820024     0.02100
H611        H  0.45581989  0.60344698  0.82436601     0.15100
H612        H  0.29275046  0.61484432  0.70856024     0.15100
C613        C  0.28215937  0.58103988  0.80603901     0.36700
C614        C  0.46867874  0.56917514  0.72061012     0.36600
N615        N  0.25078420  0.55114160  0.82191279    -0.43600
N616        N  0.50655341  0.54409853  0.71409341    -0.43600
C617        C  0.38732445  0.69963776  0.89594632     0.00000
C618        C  0.42448741  0.72277890  0.85842580    -0.11900
C619        C  0.42892489  0.77947116  0.85078750     0.02200
C620        C  0.39540403  0.81311710  0.87972996    -0.00100
C621        C  0.37702960  0.79221771  0.93011152    -0.11900
C622        C  0.36873222  0.73697449  0.93612636     0.02100
H623        H  0.44753911  0.69670213  0.83420053     0.15100
H624        H  0.36014224  0.81927158  0.96030159     0.15100
C625        C  0.33464792  0.72542336  0.98086393     0.36700
C626        C  0.46576804  0.80537780  0.81390433     0.36600
N627        N  0.30782475  0.72848813  0.01929323    -0.43600
N628        N  0.48948359  0.83097556  0.78188661    -0.43600
C629        C  0.20322397  0.60918368  0.60474317     0.00000
C630        C  0.22551398  0.56024612  0.62445550    -0.11900
C631        C  0.28229206  0.55619609  0.62908597     0.02200
C632        C  0.31447128  0.59965390  0.60981947    -0.00100
C633        C  0.29080650  0.62664033  0.56550387    -0.11900
C634        C  0.23568282  0.63505101  0.56483458     0.02100
H635        H  0.19997100  0.52953499  0.64253495     0.15100
H636        H  0.31650963  0.63903867  0.53239613     0.15100
C637        C  0.21405762  0.66984651  0.52337505     0.36700
C638        C  0.30620690  0.51737085  0.66552110     0.36600
N639        N  0.19859711  0.70018663  0.49066444    -0.43600
N640        N  0.32897559  0.99376134  0.70018694    -0.43600
C641        C  0.14125823  0.69402738  0.60869321     0.00000
C642        C  0.09531730  0.72298978  0.58931755    -0.11900
C643        C  0.09052462  0.78035463  0.59858467     0.02200
C644        C  0.13630499  0.81506791  0.60813060    -0.00100
C645        C  0.18419881  0.78547023  0.61796923    -0.11900
C646        C  0.18382185  0.72890112  0.62717532     0.02100
H647        H  0.06043244  0.70065104  0.57432489     0.15100
H648        H  0.21984224  0.80654236  0.63209723     0.15100
C649        C  0.21906253  0.70978646  0.67050283     0.36700
C650        C  0.04062518  0.79901981  0.61894607     0.36600
N651        N  0.24197792  0.69327278  0.70929788    -0.43600
N652        N  0.50342825  0.81513960  0.64096667    -0.43600
C653        C  0.19599820  0.90176512  0.61846382     0.00000
C654        C  0.22337102  0.90276136  0.56726147    -0.11900
C655        C  0.27928101  0.89256871  0.56420170     0.02200
C656        C  0.31384710  0.88445996  0.61168182    -0.00100
C657        C  0.28731780  0.89519728  0.66255462    -0.11900
C658        C  0.23217694  0.90788259  0.66552359     0.02100
H659        H  0.20211661  0.91408706  0.52905738     0.15100
H660        H  0.31001012  0.89931393  0.70101079     0.15100
C661        C  0.21887920  0.94143865  0.71177587     0.36700
C662        C  0.30155248  0.89953573  0.51168973     0.36600
N663        N  0.21071192  0.97002164  0.74862925    -0.43600
N664        N  0.32283475  0.91067554  0.97127437    -0.43600
C665        C  0.12901027  0.89297467  0.81072350     0.00000
C666        C  0.16102888  0.86122090  0.77701259    -0.11900
C667        C  0.14393511  0.84616272  0.72335990     0.02200
C668        C  0.11903386  0.88306822  0.68765990    -0.00100
C669        C  0.08858748  0.92169882  0.71711535    -0.11900
C670        C  0.08837257  0.92170545  0.77871307     0.02100
H671        H  0.18996399  0.83652777  0.79707238     0.15100
H672        H  0.06408209  0.94947957  0.69324049     0.15100
C673        C  0.04812127  0.95180555  0.80676251     0.36700
C674        C  0.12474350  0.79206336  0.71909383     0.36600
N675        N  0.01772473  0.97758449  0.83032051    -0.43600
N676        N  0.10853909  0.74858779  0.71476486    -0.43600
C677        C  0.20037538  0.88266615  0.88910383     0.00000
C678        C  0.23303144  0.92814410  0.87407424    -0.11900
C679        C  0.28875693  0.92428785  0.86176071     0.02200
C680        C  0.31607235  0.87578089  0.86717485    -0.00100
C681        C  0.28170560  0.83097896  0.87629950    -0.11900
C682        C  0.23071223  0.83576633  0.89813171     0.02100
H683        H  0.21689479  0.96714324  0.87371424     0.15100
H684        H  0.29579236  0.79087166  0.87287419     0.15100
C685        C  0.23159333  0.81296424  0.95302096     0.36700
C686        C  0.32001279  0.96915197  0.84389015     0.36600
N687        N  0.23541729  0.79961152  0.99959150    -0.43600
N688        N  0.35114284  0.50061680  0.82913753    -0.43600
C689        C  0.11242603  0.62198648  0.80815324     0.00000
C690        C  0.07074675  0.62628815  0.76813563    -0.11900
C691        C  0.08026113  0.63152956  0.70821472     0.02200
C692        C  0.13016727  0.61774064  0.68434694    -0.00100
C693        C  0.16517816  0.59511112  0.72673331    -0.11900
C694        C  0.15180111  0.59203001  0.78491507     0.02100
H695        H  0.03119920  0.62800030  0.78424496     0.15100
H696        H  0.20361988  0.57984264  0.71830727     0.15100
C697        C  0.14816548  0.54141559  0.81145989     0.36700
C698        C  0.03796837  0.65339788  0.67410921     0.36600
N699        N  0.14183261  0.50444084  0.83946030    -0.43600
N700        N  0.00218933  0.67263120  0.65047268    -0.43600
C701        C  0.30177815  0.63877875  0.90369538     0.00000
C702        C  0.27227359  0.67794765  0.87468520    -0.11900
C703        C  0.21606446  0.67728637  0.86776514     0.02200
C704        C  0.18020104  0.63893025  0.89125071    -0.00100
C705        C  0.20870455  0.59911364  0.92321555    -0.11900
C706        C  0.26728888  0.59879018  0.92952592     0.02100
H707        H  0.29455015  0.70641066  0.84951639     0.15100
H708        H  0.18598824  0.56649512  0.94170090     0.15100
C709        C  0.28929256  0.55389878  0.95875879     0.36700
C710        C  0.19835171  0.71390710  0.82769349     0.36600
N711        N  0.30438248  0.51741689  0.48405929    -0.43600
N712        N  0.18779968  0.74335195  0.79270322    -0.43600
C713        C  0.09570324  0.70019935  0.88087078     0.00000
C714        C  0.10469239  0.72873799  0.93175660    -0.11900
C715        C  0.11309806  0.78549792  0.93137566     0.02200
C716        C  0.11373821  0.81711049  0.88238189    -0.00100
C717        C  0.08802320  0.79028875  0.83803670    -0.11900
C718        C  0.07672290  0.73496720  0.83681104     0.02100
H719        H  0.10625814  0.70709103  0.97120014     0.15100
H720        H  0.07507770  0.81327940  0.80320392     0.15100
C721        C  0.03631587  0.72253599  0.79520764     0.36700
C722        C  0.12316969  0.81391154  0.97966662     0.36600
N723        N  0.00415729  0.71835949  0.75925441    -0.43600
N724        N  0.13952680  0.84858387  0.50635484    -0.43600
O725        O  0.89362250  0.44395835  0.04636202    -0.80000
O726        O  0.62753900  0.06655475  0.03365434    -0.80000
O727        O  0.55761224  0.39037772  0.04983849    -0.80100
O728        O  0.95843113  0.09067304  0.08922890    -0.80000
O729        O  0.59945166  0.46477916  0.07021249    -0.82100
O730        O  0.88792879  0.05482442  0.04922239    -0.80000
O731        O  0.55869998  0.09377506  0.07866161    -0.80000
O732        O  0.95867617  0.38757040  0.05306247    -0.80100
C733        C  0.91146625  0.39980614  0.06637321     1.09700
C734        C  0.60862918  0.09497358  0.07379887     1.09600
C735        C  0.59394294  0.41413658  0.08007007     1.09700
C736        C  0.90892818  0.08380260  0.08898491     1.09600
O737        O  0.90471264  0.05498613  0.42472295    -0.80000
O738        O  0.62701183  0.45392561  0.44925677    -0.80100
O739        O  0.95275625  0.38651876  0.43851118    -0.80000
O740        O  0.55011491  0.12318367  0.45422458    -0.80000
O741        O  0.58482326  0.05066145  0.42059541    -0.80100
O742        O  0.90650839  0.45562903  0.41589684    -0.80000
O743        O  0.93558910  0.12504838  0.46912415    -0.80000
O744        O  0.55417970  0.40475966  0.42950864    -0.80100
Co745      Co  0.91006296  0.00245741  0.48683015     1.51500
Co746      Co  0.58251294  0.50665845  0.99403332     1.51700
Co747      Co  0.00428369  0.42610110  0.49471390     1.51600
Co748      Co  0.50043634  0.09773523  0.01905506     1.51500
O749        O  0.99693019  0.51153400  0.00045360    -1.42000
C750        C  0.90344828  0.10454729  0.43138825     1.09600
C751        C  0.60376604  0.41627120  0.41954509     1.09700
C752        C  0.91632106  0.40711300  0.40647179     1.09600
C753        C  0.58058389  0.10165544  0.41784956     1.09600
C754        C  0.61534479  0.13908810  0.37460136    -0.02400
C755        C  0.63588432  0.37912007  0.37681875    -0.02400
C756        C  0.63443218  0.38013575  0.12277286    -0.02400
C757        C  0.64489199  0.12866972  0.11800516    -0.02400
C758        C  0.86613760  0.13898522  0.39036709    -0.02400
C759        C  0.87305016  0.11643558  0.13078915    -0.02400
C760        C  0.87620790  0.36418584  0.10965716    -0.02400
C761        C  0.88008414  0.37150295  0.36156805    -0.02400
C762        C  0.90085597  0.37046538  0.17249645     0.00000
C763        C  0.89417461  0.32843707  0.20936197    -0.11900
C764        C  0.86914927  0.33675693  0.26003629     0.02200
C765        C  0.88722013  0.37969014  0.29469098    -0.00100
C766        C  0.91384510  0.42169540  0.26328559    -0.11900
C767        C  0.91611762  0.41839886  0.20161944     0.02100
H768        H  0.91156503  0.29058120  0.19972894     0.15100
H769        H  0.92980606  0.45671166  0.28477522     0.15100
C770        C  0.94151943  0.45839028  0.16796474     0.36700
C771        C  0.81489623  0.31780121  0.26092818     0.36600
N772        N  0.96248592  0.48482944  0.13464883    -0.43600
N773        N  0.77112689  0.30292533  0.25570311    -0.43600
C774        C  0.87389707  0.29931282  0.09669874     0.00000
C775        C  0.83581248  0.26914308  0.12781174    -0.11900
C776        C  0.84679531  0.21731330  0.14893542     0.02200
C777        C  0.87910505  0.18095821  0.12032711    -0.00100
C778        C  0.91252876  0.20712415  0.08047644    -0.11900
C779        C  0.91332193  0.26475573  0.07173964     0.02100
H780        H  0.80617544  0.29064084  0.15022703     0.15100
H781        H  0.93953644  0.18332481  0.05647749     0.15100
C782        C  0.95210900  0.28294919  0.03174087     0.36700
C783        C  0.84978576  0.21595378  0.20912450     0.36600
N784        N  0.98452889  0.29382013  0.99928255    -0.43600
N785        N  0.85568908  0.21683185  0.25765541    -0.43600
C786        C  0.87176041  0.11902672  0.32500844     0.00000
C787        C  0.92048713  0.10811679  0.29759708    -0.11900
C788        C  0.92341774  0.09885853  0.23705607     0.02200
C789        C  0.87797894  0.10616709  0.19928948    -0.00100
C790        C  0.83040380  0.11007282  0.22985426    -0.11900
C791        C  0.82716943  0.11009990  0.28819988     0.02100
H792        H  0.95582802  0.10349820  0.32438284     0.15100
H793        H  0.79277025  0.11488894  0.20855482     0.15100
C794        C  0.78216139  0.08107126  0.30602482     0.36700
C795        C  0.96869595  0.06921900  0.22062801     0.36600
N796        N  0.75078060  0.05117389  0.32188857    -0.43600
N797        N  0.00657070  0.04414304  0.21411207    -0.43600
C798        C  0.88730447  0.19964819  0.39598108     0.00000
C799        C  0.92450222  0.22279429  0.35850105    -0.11900
C800        C  0.92891412  0.27948753  0.35084912     0.02200
C801        C  0.89534623  0.31312390  0.37974017    -0.00100
C802        C  0.87693498  0.29222832  0.43010851    -0.11900
C803        C  0.86866403  0.23698450  0.43613462     0.02100
H804        H  0.94761132  0.19671820  0.33432955     0.15100
H805        H  0.86002215  0.31927954  0.46028266     0.15100
C806        C  0.83460395  0.22541700  0.48088821     0.36700
C807        C  0.96578146  0.30541692  0.31401496     0.36600
N808        N  0.80780456  0.22846334  0.51933806    -0.43600
N809        N  0.98949830  0.33105691  0.28203592    -0.43600
C810        C  0.70325769  0.10921114  0.10474325     0.00000
C811        C  0.72554698  0.06027539  0.12445886    -0.11900
C812        C  0.78232425  0.05622417  0.12909155     0.02200
C813        C  0.81450466  0.09968047  0.10982360    -0.00100
C814        C  0.79084289  0.12666563  0.06550552    -0.11900
C815        C  0.73571968  0.13507689  0.06483477     0.02100
H816        H  0.70000241  0.02956454  0.14253640     0.15100
H817        H  0.81654688  0.13906296  0.03239862     0.15100
C818        C  0.71409941  0.16986359  0.02336518     0.36700
C819        C  0.80623575  0.01740452  0.16553567     0.36600
N820        N  0.69864988  0.20019256  0.99063764    -0.43600
N821        N  0.82896620  0.49380355  0.20019451    -0.43600
C822        C  0.64129701  0.19405075  0.10868579     0.00000
C823        C  0.59535685  0.22301141  0.08930990    -0.11900
C824        C  0.59056060  0.28037317  0.09858425     0.02200
C825        C  0.63633974  0.31508773  0.10812584    -0.00100
C826        C  0.68423488  0.28549247  0.11796509    -0.11900
C827        C  0.68386012  0.22892393  0.12717314     0.02100
H828        H  0.56047393  0.20067148  0.07431356     0.15100
H829        H  0.71987601  0.30656741  0.13209708     0.15100
C830        C  0.71909179  0.20981608  0.17051519     0.36700
C831        C  0.54066243  0.29903130  0.11895606     0.36600
N832        N  0.74200061  0.19332105  0.20932439    -0.43600
N833        N  0.00346709  0.31514276  0.14098297    -0.43600
C834        C  0.69602734  0.40178605  0.11844837     0.00000
C835        C  0.72340052  0.40276493  0.06724585    -0.11900
C836        C  0.77931145  0.39257503  0.06419122     0.02200
C837        C  0.81387581  0.38448041  0.11167576    -0.00100
C838        C  0.78734557  0.39523548  0.16254276    -0.11900
C839        C  0.73220365  0.40791946  0.16550705     0.02100
H840        H  0.70214452  0.41406992  0.02903567     0.15100
H841        H  0.81003796  0.39935807  0.20099941     0.15100
C842        C  0.71889453  0.44147488  0.21175655     0.36700
C843        C  0.80158564  0.39953219  0.01167842     0.36600
N844        N  0.71071334  0.47005780  0.24860641    -0.43600
N845        N  0.82279842  0.41070809  0.47125144    -0.43600
C846        C  0.62900449  0.39300715  0.31070416     0.00000
C847        C  0.66104348  0.36127197  0.27699687    -0.11900
C848        C  0.64396278  0.34619926  0.22334779     0.02200
C849        C  0.61905564  0.38309366  0.18764261    -0.00100
C850        C  0.58859383  0.42172025  0.21708796    -0.11900
C851        C  0.58836728  0.42173103  0.27868554     0.02100
H852        H  0.69000362  0.33660565  0.29704744     0.15100
H853        H  0.56408889  0.44949647  0.19320600     0.15100
C854        C  0.54811578  0.45184046  0.30672496     0.36700
C855        C  0.62479352  0.29209013  0.21908930     0.36600
N856        N  0.51771994  0.47762990  0.33027164    -0.43600
N857        N  0.60859920  0.24860889  0.21477915    -0.43600
C858        C  0.70035468  0.38268868  0.38909420     0.00000
C859        C  0.73300849  0.42817707  0.37408492    -0.11900
C860        C  0.78873276  0.42431626  0.36175604     0.02200
C861        C  0.81604098  0.37580303  0.36714373    -0.00100
C862        C  0.78166679  0.33099818  0.37621942    -0.11900
C863        C  0.73068693  0.33577975  0.39808137     0.02100
H864        H  0.71687590  0.46717495  0.37376132     0.15100
H865        H  0.79575136  0.29089290  0.37276120     0.15100
C866        C  0.73159574  0.31295823  0.45296082     0.36700
C867        C  0.81999604  0.46918298  0.34391003     0.36600
N868        N  0.73543833  0.29959319  0.49952538    -0.43600
N869        N  0.85110986  0.00064028  0.32918977    -0.43600
C870        C  0.61242495  0.12201356  0.30814500     0.00000
C871        C  0.57075575  0.12633563  0.26812096    -0.11900
C872        C  0.58028089  0.13157234  0.20820237     0.02200
C873        C  0.63018842  0.11777298  0.18434074    -0.00100
C874        C  0.66519085  0.09513547  0.22673094    -0.11900
C875        C  0.65180018  0.09205448  0.28491128     0.02100
H876        H  0.53120719  0.12805056  0.28422354     0.15100
H877        H  0.70362818  0.07986108  0.21830941     0.15100
C878        C  0.64815992  0.04144276  0.31146145     0.36700
C879        C  0.53799227  0.15344263  0.17409515     0.36600
N880        N  0.64182208  0.00447124  0.33946447    -0.43600
N881        N  0.50221519  0.17267520  0.15045575    -0.43600
C882        C  0.80176216  0.13878349  0.40369668     0.00000
C883        C  0.77226317  0.17795670  0.37468797    -0.11900
C884        C  0.71605430  0.17730876  0.36777161     0.02200
C885        C  0.68018569  0.13895230  0.39124791    -0.00100
C886        C  0.70868456  0.09912452  0.42320216    -0.11900
C887        C  0.76726786  0.09879484  0.42951802     0.02100
H888        H  0.79454588  0.20641504  0.34951989     0.15100
H889        H  0.68596552  0.06650480  0.44168061     0.15100
C890        C  0.78926489  0.05390116  0.45875223     0.36700
C891        C  0.69835537  0.21395624  0.32772095     0.36600
N892        N  0.80444682  0.01740554  0.98403402    -0.43600
N893        N  0.68784900  0.24344145  0.29275383    -0.43600
C894        C  0.59568424  0.20022131  0.38085059     0.00000
C895        C  0.60467364  0.22876345  0.43173407    -0.11900
C896        C  0.61307852  0.28552332  0.43135208     0.02200
C897        C  0.61372497  0.31713374  0.38235622    -0.00100
C898        C  0.58803361  0.29030698  0.33800114    -0.11900
C899        C  0.57671941  0.23498902  0.33677886     0.02100
H900        H  0.60624317  0.20711720  0.47117742     0.15100
H901        H  0.57510890  0.31329158  0.30315561     0.15100
C902        C  0.53629628  0.22257612  0.29517886     0.36700
C903        C  0.62318008  0.31393031  0.47964287     0.36600
N904        N  0.50411744  0.21841068  0.25924352    -0.43600
N905        N  0.63953037  0.34858205  0.00634497    -0.43600
O906        O  0.89360478  0.44393626  0.54634471    -0.80000
O907        O  0.62752911  0.06652827  0.53366342    -0.80000
O908        O  0.55760102  0.39035685  0.54981674    -0.80100
O909        O  0.95841675  0.09065974  0.58922076    -0.80000
O910        O  0.59941751  0.46476272  0.57021999    -0.82100
O911        O  0.88791234  0.05480257  0.54922309    -0.80000
O912        O  0.55868708  0.09377570  0.57865049    -0.80000
O913        O  0.95866382  0.38755691  0.55305986    -0.80100
C914        C  0.91144973  0.39978635  0.56636103     1.09700
C915        C  0.60861886  0.09495267  0.57380158     1.09600
C916        C  0.59392175  0.41411507  0.58006392     1.09700
C917        C  0.90891465  0.08378379  0.58898064     1.09600
O918        O  0.90474785  0.05498431  0.92471906    -0.80000
O919        O  0.62704110  0.45392574  0.94924991    -0.80100
O920        O  0.95279985  0.38652842  0.93850029    -0.80000
O921        O  0.55014357  0.12317655  0.95423431    -0.80000
O922        O  0.58483155  0.05065045  0.92058920    -0.80100
O923        O  0.90651462  0.45562281  0.91590993    -0.80000
O924        O  0.93561177  0.12505104  0.96912133    -0.80000
O925        O  0.55421211  0.40474725  0.92952793    -0.80100
Co926      Co  0.91008448  0.00246649  0.98683671     1.51500
Co927      Co  0.58248972  0.50665638  0.49403983     1.51700
Co928      Co  0.00430677  0.42610981  0.99472149     1.51600
Co929      Co  0.50041698  0.09773023  0.51904688     1.51500
O930        O  0.99690690  0.51152731  0.50044592    -1.42000
C931        C  0.90347607  0.10454535  0.93138237     1.09600
C932        C  0.60379612  0.41626018  0.91955129     1.09700
C933        C  0.91635432  0.40711437  0.90646820     1.09600
C934        C  0.58060456  0.10164412  0.91785300     1.09600
C935        C  0.61536836  0.13906815  0.87460549    -0.02400
C936        C  0.63591097  0.37909882  0.87682379    -0.02400
C937        C  0.63441438  0.38011003  0.62276953    -0.02400
C938        C  0.64488427  0.12864061  0.61801000    -0.02400
C939        C  0.86616240  0.13897587  0.89035575    -0.02400
C940        C  0.87304021  0.11641258  0.63078560    -0.02400
C941        C  0.87619171  0.36416622  0.60964587    -0.02400
C942        C  0.88012538  0.37149431  0.86156460    -0.02400
C943        C  0.90084459  0.37044907  0.67248245     0.00000
C944        C  0.89414936  0.32842566  0.70934911    -0.11900
C945        C  0.86914782  0.33675536  0.76003278     0.02200
C946        C  0.88724351  0.37968225  0.79468432    -0.00100
C947        C  0.91386971  0.42167939  0.76326868    -0.11900
C948        C  0.91612073  0.41838139  0.70160107     0.02100
H949        H  0.91153924  0.29056828  0.69972242     0.15100
H950        H  0.92984149  0.45669466  0.78475081     0.15100
C951        C  0.94149936  0.45837958  0.66793711     0.36700
C952        C  0.81490873  0.31776766  0.76097074     0.36600
N953        N  0.96244356  0.48482943  0.63461513    -0.43600
N954        N  0.77114735  0.30285848  0.75578428    -0.43600
C955        C  0.87388142  0.29929192  0.59669227     0.00000
C956        C  0.83580159  0.26912153  0.62781319    -0.11900
C957        C  0.84678629  0.21728968  0.64893134     0.02200
C958        C  0.87909537  0.18093605  0.62032219    -0.00100
C959        C  0.91251850  0.20710440  0.58047121    -0.11900
C960        C  0.91330457  0.26473611  0.57172909     0.02100
H961        H  0.80616795  0.29061775  0.65023624     0.15100
H962        H  0.93952919  0.18330761  0.55647429     0.15100
C963        C  0.95208115  0.28293238  0.53172013     0.36700
C964        C  0.84977933  0.21592508  0.70911843     0.36600
N965        N  0.98449434  0.29380590  0.49925546    -0.43600
N966        N  0.85568394  0.21679931  0.75764847    -0.43600
C967        C  0.87177457  0.11899884  0.82500189     0.00000
C968        C  0.92049559  0.10807663  0.79758624    -0.11900
C969        C  0.92342059  0.09882204  0.73704473     0.02200
C970        C  0.87797768  0.10613713  0.69928385    -0.00100
C971        C  0.83040695  0.11003825  0.72985506    -0.11900
C972        C  0.82717875  0.11007106  0.78820076     0.02100
H973        H  0.95583765  0.10345503  0.82436985     0.15100
H974        H  0.79276949  0.11484901  0.70856018     0.15100
C975        C  0.78217188  0.08104597  0.80603506     0.36700
C976        C  0.96869824  0.06918302  0.72061121     0.36600
N977        N  0.75079042  0.05115080  0.82190191    -0.43600
N978        N  0.00657225  0.04410692  0.71408931    -0.43600
C979        C  0.88733538  0.19963936  0.89595201     0.00000
C980        C  0.92451057  0.22277931  0.85844297    -0.11900
C981        C  0.92894156  0.27947262  0.85079893     0.02200
C982        C  0.89540824  0.31311788  0.87972626    -0.00100
C983        C  0.87702338  0.29222111  0.93010478    -0.11900
C984        C  0.86873102  0.23697787  0.93612365     0.02100
H985        H  0.94757687  0.19670130  0.83423474     0.15100
H986        H  0.86012944  0.31927566  0.96028941     0.15100
C987        C  0.83465330  0.22542466  0.98086631     0.36700
C988        C  0.96579011  0.30538354  0.81392602     0.36600
N989        N  0.80783792  0.22848699  0.01930212    -0.43600
N990        N  0.98950439  0.33099067  0.78191556    -0.43600
C991        C  0.70324791  0.10918033  0.60474361     0.00000
C992        C  0.72553840  0.06024408  0.62445686    -0.11900
C993        C  0.78231594  0.05619625  0.62908910     0.02200
C994        C  0.81449329  0.09965631  0.60982370    -0.00100
C995        C  0.79082946  0.12663819  0.56550399    -0.11900
C996        C  0.73570535  0.13504610  0.56483260     0.02100
H997        H  0.69999558  0.02953128  0.64253333     0.15100
H998        H  0.81653301  0.13903636  0.53239591     0.15100
C999        C  0.71407721  0.16983956  0.52337226     0.36700
C1000       C  0.80622938  0.01737099  0.66552526     0.36600
N1001       N  0.69860996  0.20017976  0.49066502    -0.43600
N1002       N  0.82895746  0.49376269  0.70018268    -0.43600
C1003       C  0.64128550  0.19402255  0.60869101     0.00000
C1004       C  0.59534755  0.22298118  0.58930344    -0.11900
C1005       C  0.59054952  0.28034443  0.59856913     0.02200
C1006       C  0.63632624  0.31506150  0.60811675    -0.00100
C1007       C  0.68422227  0.28546700  0.61796030    -0.11900
C1008       C  0.68384794  0.22889828  0.62717285     0.02100
H1009       H  0.56046554  0.20064017  0.57430680     0.15100
H1010       H  0.71986414  0.30654203  0.63208803     0.15100
C1011       C  0.71908811  0.20978796  0.67050441     0.36700
C1012       C  0.54064817  0.29900090  0.61893292     0.36600
N1013       N  0.74200396  0.19328163  0.70930311    -0.43600
N1014       N  0.00344990  0.31510961  0.64095799    -0.43600
C1015       C  0.69600981  0.40176330  0.61845175     0.00000
C1016       C  0.72338298  0.40276147  0.56725013    -0.11900
C1017       C  0.77929220  0.39256692  0.56418922     0.02200
C1018       C  0.81385841  0.38445687  0.61167024    -0.00100
C1019       C  0.78732858  0.39519327  0.66254299    -0.11900
C1020       C  0.73218761  0.40787912  0.66551234     0.02100
H1021       H  0.70212881  0.41409219  0.52904726     0.15100
H1022       H  0.81002132  0.39930822  0.70099955     0.15100
C1023       C  0.71888803  0.44143498  0.71176514     0.36700
C1024       C  0.80156009  0.39953921  0.51167538     0.36600
N1025       N  0.71071810  0.47001889  0.74861747    -0.43600
N1026       N  0.82283414  0.41068727  0.97125687    -0.43600
C1027       C  0.62902041  0.39297562  0.81070695     0.00000
C1028       C  0.66104218  0.36122527  0.77699563    -0.11900
C1029       C  0.64394906  0.34616055  0.72334522     0.02200
C1030       C  0.61904330  0.38306126  0.68764381    -0.00100
C1031       C  0.58859337  0.42169065  0.71709761    -0.11900
C1032       C  0.58837945  0.42170073  0.77869556     0.02100
H1033       H  0.68998967  0.33654353  0.79705088     0.15100
H1034       H  0.56408505  0.44946839  0.69322156     0.15100
C1035       C  0.54812761  0.45180016  0.80674493     0.36700
C1036       C  0.62476788  0.29205712  0.71908210     0.36600
N1037       N  0.51773123  0.47757833  0.83030410    -0.43600
N1038       N  0.60857020  0.24857855  0.71475993    -0.43600
C1039       C  0.70038547  0.38266746  0.88908709     0.00000
C1040       C  0.73304131  0.42814542  0.87405969    -0.11900
C1041       C  0.78876657  0.42429097  0.86174480     0.02200
C1042       C  0.81608173  0.37578392  0.86715657    -0.00100
C1043       C  0.78171362  0.33098151  0.87627067    -0.11900
C1044       C  0.73072213  0.33576638  0.89810691     0.02100
H1045       H  0.71690220  0.46714505  0.87370338     0.15100
H1046       H  0.79580112  0.29087451  0.87283978     0.15100
C1047       C  0.73160831  0.31296090  0.95299398     0.36700
C1048       C  0.82002309  0.46915616  0.84387936     0.36600
N1049       N  0.73543632  0.29960694  0.99956359    -0.43600
N1050       N  0.85113302  0.00061038  0.82914348    -0.43600
C1051       C  0.61243884  0.12198670  0.80814990     0.00000
C1052       C  0.57076317  0.12629387  0.76812968    -0.11900
C1053       C  0.58028188  0.13153350  0.70820995     0.02200
C1054       C  0.63018789  0.11773818  0.68434584    -0.00100
C1055       C  0.66519203  0.09510102  0.72673415    -0.11900
C1056       C  0.65181042  0.09202363  0.78491566     0.02100
H1057       H  0.53121488  0.12800768  0.78423628     0.15100
H1058       H  0.70363059  0.07982424  0.71830981     0.15100
C1059       C  0.64816770  0.04141264  0.81146762     0.36700
C1060       C  0.53799269  0.15340472  0.67410161     0.36600
N1061       N  0.64182369  0.00444367  0.83947316    -0.43600
N1062       N  0.50221755  0.17263955  0.65045976    -0.43600
C1063       C  0.80178916  0.13877897  0.90369433     0.00000
C1064       C  0.77228555  0.17794783  0.87468337    -0.11900
C1065       C  0.71607634  0.17728829  0.86776280     0.02200
C1066       C  0.68021167  0.13893223  0.89124708    -0.00100
C1067       C  0.70871487  0.09911352  0.92321004    -0.11900
C1068       C  0.76729926  0.09878947  0.92952166     0.02100
H1069       H  0.79456369  0.20640920  0.84951396     0.15100
H1070       H  0.68599856  0.06649417  0.94169347     0.15100
C1071       C  0.78930373  0.05389628  0.95875069     0.36700
C1072       C  0.69836704  0.21391550  0.82769598     0.36600
N1073       N  0.80439941  0.01741314  0.48404582    -0.43600
N1074       N  0.68782724  0.24337179  0.79271234    -0.43600
C1075       C  0.59571353  0.20020090  0.88086080     0.00000
C1076       C  0.60470494  0.22874155  0.93174484    -0.11900
C1077       C  0.61310986  0.28550133  0.93136186     0.02200
C1078       C  0.61375014  0.31711225  0.88236691    -0.00100
C1079       C  0.58804129  0.29028740  0.83802009    -0.11900
C1080       C  0.57673701  0.23496718  0.83679692     0.02100
H1081       H  0.60627347  0.20709558  0.97118874     0.15100
H1082       H  0.57510157  0.31327429  0.80318282     0.15100
C1083       C  0.53632599  0.22254021  0.79519408     0.36700
C1084       C  0.62318731  0.31391483  0.97965193     0.36600
N1085       N  0.50416158  0.21836617  0.75924599    -0.43600
N1086       N  0.63954680  0.34858398  0.50634074    -0.43600
O1087       O  0.89361579  0.94396948  0.04637939    -0.80000
O1088       O  0.62751602  0.56656178  0.03364749    -0.80000
O1089       O  0.55760312  0.89038680  0.04985047    -0.80100
O1090       O  0.95841129  0.59067513  0.08922564    -0.80000
O1091       O  0.59944191  0.96478798  0.07023060    -0.82100
O1092       O  0.88791434  0.55481520  0.04921919    -0.80000
O1093       O  0.55867861  0.59376239  0.07866918    -0.80000
O1094       O  0.95866108  0.88757068  0.05306171    -0.80100
C1095       C  0.91145519  0.89981178  0.06638236     1.09700
C1096       C  0.60860585  0.59497340  0.07379878     1.09600
C1097       C  0.59393193  0.91414522  0.08008546     1.09700
C1098       C  0.90890884  0.58379980  0.08898028     1.09600
O1099       O  0.90470410  0.55498607  0.42471908    -0.80000
O1100       O  0.62700372  0.95392025  0.44927417    -0.80100
O1101       O  0.95275598  0.88652113  0.43851063    -0.80000
O1102       O  0.55011236  0.62317902  0.45423333    -0.80000
O1103       O  0.58480719  0.55065760  0.42058400    -0.80100
O1104       O  0.90649094  0.95562492  0.41591246    -0.80000
O1105       O  0.93558237  0.62504815  0.46911894    -0.80000
O1106       O  0.55416952  0.90476136  0.42951629    -0.80100
Co1107     Co  0.91006191  0.50245380  0.48682151     1.51500
Co1108     Co  0.58251746  0.00666643  0.99404853     1.51700
Co1109     Co  0.00427636  0.92610350  0.49472052     1.51600
Co1110     Co  0.50042488  0.59773283  0.01905736     1.51500
O1111       O  0.99693248  0.01153520  0.00045180    -1.42000
C1112       C  0.90343947  0.60454699  0.43138459     1.09600
C1113       C  0.60375684  0.91626972  0.41955866     1.09700
C1114       C  0.91631341  0.90711261  0.40647875     1.09600
C1115       C  0.58057413  0.60165254  0.41784985     1.09600
C1116       C  0.61533401  0.63908745  0.37460511    -0.02400
C1117       C  0.63587478  0.87911885  0.37683458    -0.02400
C1118       C  0.63441916  0.88014235  0.12278781    -0.02400
C1119       C  0.64486679  0.62867297  0.11800465    -0.02400
C1120       C  0.86612622  0.63898373  0.39036352    -0.02400
C1121       C  0.87302820  0.61643243  0.13078511    -0.02400
C1122       C  0.87619631  0.86418835  0.10966587    -0.02400
C1123       C  0.88007495  0.87150144  0.36157749    -0.02400
C1124       C  0.90084228  0.87046172  0.17250629     0.00000
C1125       C  0.89413627  0.82843560  0.20936919    -0.11900
C1126       C  0.86911777  0.83676296  0.26004493     0.02200
C1127       C  0.88720238  0.87969087  0.29470040    -0.00100
C1128       C  0.91383978  0.92168851  0.26329693    -0.11900
C1129       C  0.91611646  0.91839089  0.20163148     0.02100
H1130       H  0.91152936  0.79057868  0.19974511     0.15100
H1131       H  0.92980715  0.95670095  0.28478813     0.15100
C1132       C  0.94152831  0.95837909  0.16798058     0.36700
C1133       C  0.81486580  0.81780625  0.26094553     0.36600
N1134       N  0.96249852  0.98481765  0.13466682    -0.43600
N1135       N  0.77109776  0.80292598  0.25572471    -0.43600
C1136       C  0.87388243  0.79931488  0.09670222     0.00000
C1137       C  0.83579174  0.76914481  0.12780791    -0.11900
C1138       C  0.84676945  0.71731260  0.14892968     0.02200
C1139       C  0.87908276  0.68095663  0.12032538    -0.00100
C1140       C  0.91251115  0.70712363  0.08047969    -0.11900
C1141       C  0.91330827  0.76475610  0.07174667     0.02100
H1142       H  0.80615390  0.79064254  0.15022235     0.15100
H1143       H  0.93951936  0.68332448  0.05648144     0.15100
C1144       C  0.95209905  0.78294841  0.03175147     0.36700
C1145       C  0.84974544  0.71595068  0.20911886     0.36600
N1146       N  0.98452057  0.79381856  0.99929466    -0.43600
N1147       N  0.85563324  0.71682932  0.25765140    -0.43600
C1148       C  0.87174500  0.61902265  0.32500526     0.00000
C1149       C  0.92046965  0.60810974  0.29759263    -0.11900
C1150       C  0.92339878  0.59885282  0.23705180     0.02200
C1151       C  0.87795911  0.60616330  0.19928597    -0.00100
C1152       C  0.83038513  0.61006648  0.22985310    -0.11900
C1153       C  0.82715270  0.61009485  0.28819921     0.02100
H1154       H  0.95581061  0.60349015  0.32437802     0.15100
H1155       H  0.79275068  0.61488172  0.20855514     0.15100
C1156       C  0.78214768  0.58106472  0.30602892     0.36700
C1157       C  0.96867701  0.56921227  0.22062593     0.36600
N1158       N  0.75077162  0.55116594  0.32189962    -0.43600
N1159       N  0.00655282  0.54413640  0.21411510    -0.43600
C1160       C  0.88729435  0.69964629  0.39597292     0.00000
C1161       C  0.92447911  0.72279331  0.35847947    -0.11900
C1162       C  0.92889762  0.77948620  0.35083504     0.02200
C1163       C  0.89534292  0.81312314  0.37974252    -0.00100
C1164       C  0.87694255  0.79222436  0.43011378    -0.11900
C1165       C  0.86866724  0.73698054  0.43613572     0.02100
H1166       H  0.94757201  0.69671948  0.33428996     0.15100
H1167       H  0.86003636  0.81927453  0.46029379     0.15100
C1168       C  0.83460099  0.72541456  0.48088425     0.36700
C1169       C  0.96575995  0.80541194  0.31399114     0.36600
N1170       N  0.80779337  0.72846318  0.51932723    -0.43600
N1171       N  0.98947866  0.83104333  0.28200594    -0.43600
C1172       C  0.70323312  0.60921415  0.10474234     0.00000
C1173       C  0.72552196  0.56027703  0.12445707    -0.11900
C1174       C  0.78229995  0.55622382  0.12908748     0.02200
C1175       C  0.81448201  0.59967836  0.10981925    -0.00100
C1176       C  0.79081943  0.62666821  0.06550523    -0.11900
C1177       C  0.73569647  0.63508151  0.06483626     0.02100
H1178       H  0.69997737  0.52956758  0.14253690     0.15100
H1179       H  0.81652304  0.63906617  0.03239904     0.15100
C1180       C  0.71407913  0.66987015  0.02336746     0.36700
C1181       C  0.80621362  0.51740336  0.16552897     0.36600
N1182       N  0.69863695  0.70019936  0.99063659    -0.43600
N1183       N  0.82898374  0.99380445  0.20020417    -0.43600
C1184       C  0.64126972  0.69405558  0.10868749     0.00000
C1185       C  0.59532705  0.72302035  0.08932289    -0.11900
C1186       C  0.59053642  0.78038369  0.09859912     0.02200
C1187       C  0.63631913  0.81509437  0.10813991    -0.00100
C1188       C  0.68421204  0.78549576  0.11797542    -0.11900
C1189       C  0.68383402  0.72892642  0.12717606     0.02100
H1190       H  0.56044133  0.70068299  0.07433004     0.15100
H1191       H  0.71985403  0.80656755  0.13210916     0.15100
C1192       C  0.71906522  0.70981300  0.17051431     0.36700
C1193       C  0.54064002  0.79905045  0.11896794     0.36600
N1194       N  0.74197178  0.69330835  0.20931992    -0.43600
N1195       N  0.00344628  0.81517383  0.14099075    -0.43600
C1196       C  0.69601606  0.90178790  0.11846069     0.00000
C1197       C  0.72338873  0.90276395  0.06725739    -0.11900
C1198       C  0.77930055  0.89257668  0.06420408     0.02200
C1199       C  0.81386503  0.88448439  0.11168767    -0.00100
C1200       C  0.78733577  0.89524171  0.16255491    -0.11900
C1201       C  0.73219340  0.90792434  0.16551847     0.02100
H1202       H  0.70213232  0.91406276  0.02904582     0.15100
H1203       H  0.81002772  0.89936664  0.20101064     0.15100
C1204       C  0.71888512  0.94148002  0.21176711     0.36700
C1205       C  0.80157789  0.89952962  0.01169310     0.36600
N1206       N  0.71070487  0.97006260  0.24861703    -0.43600
N1207       N  0.82280019  0.91069449  0.47126886    -0.43600
C1208       C  0.62899475  0.89300717  0.31072085     0.00000
C1209       C  0.66103023  0.86126878  0.27701365    -0.11900
C1210       C  0.64394882  0.84620218  0.22336263     0.02200
C1211       C  0.61904637  0.88310127  0.18765888    -0.00100
C1212       C  0.58858829  0.92172920  0.21710589    -0.11900
C1213       C  0.58836080  0.92173679  0.27870321     0.02100
H1214       H  0.68997823  0.83659097  0.29706882     0.15100
H1215       H  0.56408629  0.94950849  0.19322502     0.15100
C1216       C  0.54810982  0.95184686  0.30674272     0.36700
C1217       C  0.62476921  0.79209708  0.21910112     0.36600
N1218       N  0.51771377  0.97763696  0.33028831    -0.43600
N1219       N  0.60856848  0.74861874  0.21478383    -0.43600
C1220       C  0.70034539  0.88268787  0.38911066     0.00000
C1221       C  0.73299826  0.92817810  0.37409897    -0.11900
C1222       C  0.78872371  0.92431362  0.36177188     0.02200
C1223       C  0.81603229  0.87580021  0.36716151    -0.00100
C1224       C  0.78165988  0.83099489  0.37624711    -0.11900
C1225       C  0.73067784  0.83577983  0.39810520     0.02100
H1226       H  0.71686899  0.96717290  0.37377171     0.15100
H1227       H  0.79574338  0.79089021  0.37279414     0.15100
C1228       C  0.73158170  0.81296106  0.45298659     0.36700
C1229       C  0.81998655  0.96917966  0.34392250     0.36600
N1230       N  0.73542091  0.79959683  0.49955192    -0.43600
N1231       N  0.85111822  0.50064529  0.32917889    -0.43600
C1232       C  0.61241147  0.62201430  0.30814777     0.00000
C1233       C  0.57073910  0.62633169  0.26812619    -0.11900
C1234       C  0.58025948  0.63157008  0.20820652     0.02200
C1235       C  0.63016672  0.61777568  0.18434124    -0.00100
C1236       C  0.66517449  0.59514498  0.22672973    -0.11900
C1237       C  0.65178916  0.59206063  0.28491014     0.02100
H1238       H  0.53119097  0.62804563  0.28423170     0.15100
H1239       H  0.70361505  0.57987724  0.21830617     0.15100
C1240       C  0.64815441  0.54144544  0.31145280     0.36700
C1241       C  0.53796747  0.65343805  0.17410212     0.36600
N1242       N  0.64182567  0.50446842  0.33945039    -0.43600
N1243       N  0.50218683  0.67266950  0.15046773    -0.43600
C1244       C  0.80175142  0.63878364  0.40369669     0.00000
C1245       C  0.77225170  0.67795713  0.37468855    -0.11900
C1246       C  0.71604260  0.67730749  0.36777287     0.02200
C1247       C  0.68017500  0.63895122  0.39125063    -0.00100
C1248       C  0.70867409  0.59912579  0.42320734    -0.11900
C1249       C  0.76725746  0.59879657  0.42952182     0.02100
H1250       H  0.79453273  0.70641694  0.34952160     0.15100
H1251       H  0.68595507  0.56650722  0.44168808     0.15100
C1252       C  0.78925344  0.55390500  0.45876042     0.36700
C1253       C  0.69834041  0.71394882  0.32771764     0.36600
N1254       N  0.80443072  0.51740878  0.98404687    -0.43600
N1255       N  0.68782286  0.74342325  0.29274411    -0.43600
C1256       C  0.59567399  0.70022067  0.38086029     0.00000
C1257       C  0.60466156  0.72876049  0.43174577    -0.11900
C1258       C  0.61306733  0.78552052  0.43136589     0.02200
C1259       C  0.61371369  0.81713276  0.38237132    -0.00100
C1260       C  0.58801643  0.79030944  0.33801743    -0.11900
C1261       C  0.57670582  0.73499022  0.33679270     0.02100
H1262       H  0.60622850  0.70711318  0.47118859     0.15100
H1263       H  0.57508639  0.81329761  0.30317664     0.15100
C1264       C  0.53628654  0.72257390  0.29519200     0.36700
C1265       C  0.62316366  0.81392731  0.47965760     0.36600
N1266       N  0.50411337  0.71840690  0.25925158    -0.43600
N1267       N  0.63950779  0.84858224  0.00635881    -0.43600
O1268       O  0.89359784  0.94394740  0.54636208    -0.80000
O1269       O  0.62750720  0.56653634  0.53365755    -0.80000
O1270       O  0.55759181  0.89036488  0.54982713    -0.80100
O1271       O  0.95839715  0.59066233  0.58921719    -0.80000
O1272       O  0.59940632  0.96477078  0.57023755    -0.82100
O1273       O  0.88789790  0.55479397  0.54922007    -0.80000
O1274       O  0.55866596  0.59376298  0.57865828    -0.80000
O1275       O  0.95864854  0.88755747  0.55306005    -0.80100
C1276       C  0.91143827  0.89979209  0.56637055     1.09700
C1277       C  0.60859589  0.59495291  0.57380242     1.09600
C1278       C  0.59390996  0.91412287  0.58007833     1.09700
C1279       C  0.90889561  0.58378159  0.58897610     1.09600
O1280       O  0.90473966  0.55498454  0.92471551    -0.80000
O1281       O  0.62703106  0.95391999  0.94926655    -0.80100
O1282       O  0.95279897  0.88653158  0.93849884    -0.80000
O1283       O  0.55014076  0.62317100  0.95424365    -0.80000
O1284       O  0.58481358  0.55064526  0.92057713    -0.80100
O1285       O  0.90649538  0.95561920  0.91592563    -0.80000
O1286       O  0.93560466  0.62505086  0.96911719    -0.80000
O1287       O  0.55420023  0.90474821  0.92953552    -0.80100
Co1288     Co  0.91008382  0.50246267  0.98682799     1.51500
Co1289     Co  0.58249290  0.00666295  0.49405423     1.51700
Co1290     Co  0.00429940  0.92611224  0.99472714     1.51600
Co1291     Co  0.50040581  0.59772768  0.51904912     1.51500
O1292       O  0.99690944  0.01152849  0.50044481    -1.42000
C1293       C  0.90346697  0.60454523  0.93137973     1.09600
C1294       C  0.60378491  0.91625832  0.91956429     1.09700
C1295       C  0.91634531  0.90711460  0.90647506     1.09600
C1296       C  0.58059385  0.60164007  0.91785360     1.09600
C1297       C  0.61535676  0.63906651  0.87461036    -0.02400
C1298       C  0.63589959  0.87909732  0.87683927    -0.02400
C1299       C  0.63440045  0.88011619  0.62278377    -0.02400
C1300       C  0.64485876  0.62864443  0.61801084    -0.02400
C1301       C  0.86615050  0.63897481  0.89035379    -0.02400
C1302       C  0.87301909  0.61640997  0.63078227    -0.02400
C1303       C  0.87617945  0.86416862  0.60965469    -0.02400
C1304       C  0.88011474  0.87149320  0.86157450    -0.02400
C1305       C  0.90082981  0.87044515  0.67249264     0.00000
C1306       C  0.89410728  0.82842453  0.70935627    -0.11900
C1307       C  0.86911416  0.83676192  0.76004201     0.02200
C1308       C  0.88722481  0.87968301  0.79469418    -0.00100
C1309       C  0.91386558  0.92167110  0.76328037    -0.11900
C1310       C  0.91612110  0.91837223  0.70161352     0.02100
H1311       H  0.91150642  0.79056821  0.69974162     0.15100
H1312       H  0.92984558  0.95668186  0.78476434     0.15100
C1313       C  0.94151355  0.95836520  0.66795363     0.36700
C1314       C  0.81487681  0.81777136  0.76099078     0.36600
N1315       N  0.96246402  0.98481264  0.63463391    -0.43600
N1316       N  0.77111715  0.80285602  0.75581015    -0.43600
C1317       C  0.87386666  0.79929381  0.59669551     0.00000
C1318       C  0.83578118  0.76912238  0.62780853    -0.11900
C1319       C  0.84676153  0.71728913  0.64892591     0.02200
C1320       C  0.87907401  0.68093481  0.62032063    -0.00100
C1321       C  0.91250173  0.70710441  0.58047483    -0.11900
C1322       C  0.91329137  0.76473677  0.57173621     0.02100
H1323       H  0.80614617  0.79061855  0.65023116     0.15100
H1324       H  0.93951343  0.68330787  0.55647864     0.15100
C1325       C  0.95207180  0.78293216  0.53173110     0.36700
C1326       C  0.84974264  0.71592362  0.70911315     0.36600
N1327       N  0.98448662  0.79380520  0.49926802    -0.43600
N1328       N  0.85563473  0.71679863  0.75764454    -0.43600
C1329       C  0.87175971  0.61899643  0.82499995     0.00000
C1330       C  0.92047881  0.60807081  0.79758325    -0.11900
C1331       C  0.92340265  0.59881678  0.73704192     0.02200
C1332       C  0.87795916  0.60613469  0.69928137    -0.00100
C1333       C  0.83038983  0.61003516  0.72985494    -0.11900
C1334       C  0.82716295  0.61006867  0.78820089     0.02100
H1335       H  0.95582083  0.60344789  0.82436679     0.15100
H1336       H  0.79275164  0.61484647  0.70856123     0.15100
C1337       C  0.78215980  0.58104043  0.80603873     0.36700
C1338       C  0.96868000  0.56917579  0.72061094     0.36600
N1339       N  0.75078383  0.55114243  0.82191128    -0.43600
N1340       N  0.00655442  0.54409880  0.71409375    -0.43600
C1341       C  0.88732393  0.69963806  0.89594674     0.00000
C1342       C  0.92448716  0.72277891  0.85842583    -0.11900
C1343       C  0.92892365  0.77947147  0.85078730     0.02200
C1344       C  0.89540287  0.81311757  0.87972983    -0.00100
C1345       C  0.87702834  0.79221834  0.93011157    -0.11900
C1346       C  0.86873119  0.73697496  0.93612646     0.02100
H1347       H  0.94753913  0.69670275  0.83420161     0.15100
H1348       H  0.86014095  0.81927214  0.96030149     0.15100
C1349       C  0.83464699  0.72542373  0.98086409     0.36700
C1350       C  0.96576673  0.80537762  0.81390365     0.36600
N1351       N  0.80782392  0.72848836  0.01929350    -0.43600
N1352       N  0.98948255  0.83097473  0.78188562    -0.43600
C1353       C  0.70322340  0.60918437  0.60474472     0.00000
C1354       C  0.72551351  0.56024713  0.62445797    -0.11900
C1355       C  0.78229174  0.55619715  0.62908821     0.02200
C1356       C  0.81447114  0.59965458  0.60982091    -0.00100
C1357       C  0.79080620  0.62664091  0.56550523    -0.11900
C1358       C  0.73568239  0.63505138  0.56483596     0.02100
H1359       H  0.69997061  0.52953628  0.64253770     0.15100
H1360       H  0.81650914  0.63903892  0.53239743     0.15100
C1361       C  0.71405738  0.66984643  0.52337596     0.36700
C1362       C  0.80620657  0.51737206  0.66552359     0.36600
N1363       N  0.69859718  0.70018602  0.49066465    -0.43600
N1364       N  0.82897720  0.99376063  0.70018557    -0.43600
C1365       C  0.64125709  0.69402757  0.60869369     0.00000
C1366       C  0.59531616  0.72298981  0.58931789    -0.11900
C1367       C  0.59052356  0.78035468  0.59858467     0.02200
C1368       C  0.63630404  0.81506784  0.60813043    -0.00100
C1369       C  0.68419763  0.78547004  0.61796886    -0.11900
C1370       C  0.68382075  0.72890123  0.62717548     0.02100
H1371       H  0.56043125  0.70065098  0.57432540     0.15100
H1372       H  0.71984143  0.80654219  0.63209661     0.15100
C1373       C  0.71906131  0.70978686  0.67050324     0.36700
C1374       C  0.54062414  0.79902011  0.61894576     0.36600
N1375       N  0.74197675  0.69327345  0.70929841    -0.43600
N1376       N  0.00342916  0.81513880  0.64096718    -0.43600
C1377       C  0.69599770  0.90176472  0.61846326     0.00000
C1378       C  0.72337081  0.90276060  0.56726111    -0.11900
C1379       C  0.77928077  0.89256823  0.56420145     0.02200
C1380       C  0.81384669  0.88446020  0.61168177    -0.00100
C1381       C  0.78731691  0.89519756  0.66255405    -0.11900
C1382       C  0.73217620  0.90788267  0.66552308     0.02100
H1383       H  0.70211652  0.91408630  0.52905677     0.15100
H1384       H  0.81000935  0.89931452  0.70101051     0.15100
C1385       C  0.71887813  0.94143904  0.71177506     0.36700
C1386       C  0.80155242  0.89953507  0.51168951     0.36600
N1387       N  0.71071004  0.97002243  0.74862792    -0.43600
N1388       N  0.82283379  0.91067708  0.97127416    -0.43600
C1389       C  0.62900849  0.89297481  0.81072313     0.00000
C1390       C  0.66102721  0.86122182  0.77701206    -0.11900
C1391       C  0.64393441  0.84616304  0.72335959     0.02200
C1392       C  0.61903309  0.88306828  0.68765945    -0.00100
C1393       C  0.58858560  0.92169798  0.71711479    -0.11900
C1394       C  0.58837028  0.92170474  0.77871245     0.02100
H1395       H  0.68996273  0.83652857  0.79707237     0.15100
H1396       H  0.56407951  0.94947817  0.69323969     0.15100
C1397       C  0.54811819  0.95180399  0.80676166     0.36700
C1398       C  0.62474304  0.79206354  0.71909383     0.36600
N1399       N  0.51772149  0.97758257  0.83031990    -0.43600
N1400       N  0.60853866  0.74858793  0.71476510    -0.43600
C1401       C  0.70037435  0.88266773  0.88910300     0.00000
C1402       C  0.73302847  0.92814804  0.87407076    -0.11900
C1403       C  0.78875581  0.92428900  0.86175905     0.02200
C1404       C  0.81607151  0.87578199  0.86717495    -0.00100
C1405       C  0.78170485  0.83097984  0.87630040    -0.11900
C1406       C  0.73071144  0.83576824  0.89813233     0.02100
H1407       H  0.71689215  0.96714292  0.87370745     0.15100
H1408       H  0.79579067  0.79087268  0.87287532     0.15100
C1409       C  0.73159221  0.81296610  0.95302172     0.36700
C1410       C  0.82001220  0.96915243  0.84388792     0.36600
N1411       N  0.73541643  0.79961233  0.99959192    -0.43600
N1412       N  0.85114235  0.50061723  0.82913871    -0.43600
C1413       C  0.61242424  0.62198649  0.80815389     0.00000
C1414       C  0.57074460  0.62628770  0.76813629    -0.11900
C1415       C  0.58025915  0.63152949  0.70821523     0.02200
C1416       C  0.63016569  0.61774122  0.68434764    -0.00100
C1417       C  0.66517650  0.59511283  0.72673439    -0.11900
C1418       C  0.65179979  0.59203097  0.78491577     0.02100
H1419       H  0.53119720  0.62800013  0.78424560     0.15100
H1420       H  0.70361950  0.57984608  0.71830868     0.15100
C1421       C  0.64816501  0.54141633  0.81146023     0.36700
C1422       C  0.53796632  0.65339797  0.67410961     0.36600
N1423       N  0.64183316  0.50444120  0.83946032    -0.43600
N1424       N  0.50218750  0.67263160  0.65047291    -0.43600
C1425       C  0.80177770  0.63877852  0.90369551     0.00000
C1426       C  0.77227292  0.67794760  0.87468566    -0.11900
C1427       C  0.71606366  0.67728612  0.86776554     0.02200
C1428       C  0.68020021  0.63892995  0.89125102    -0.00100
C1429       C  0.70870391  0.59911303  0.92321533    -0.11900
C1430       C  0.76728837  0.59878962  0.92952556     0.02100
H1431       H  0.79454932  0.70641116  0.84951756     0.15100
H1432       H  0.68598768  0.56649437  0.94170047     0.15100
C1433       C  0.78929215  0.55389822  0.95875835     0.36700
C1434       C  0.69835074  0.71390727  0.82769441     0.36600
N1435       N  0.80438276  0.51741855  0.48406001    -0.43600
N1436       N  0.68779858  0.74335269  0.79270468    -0.43600
C1437       C  0.59570246  0.70019935  0.88087186     0.00000
C1438       C  0.60469203  0.72873817  0.93175764    -0.11900
C1439       C  0.61309755  0.78549827  0.93137639     0.02200
C1440       C  0.61373765  0.81711069  0.88238241    -0.00100
C1441       C  0.58802313  0.79028851  0.83803732    -0.11900
C1442       C  0.57672249  0.73496712  0.83681210     0.02100
H1443       H  0.60625813  0.70709135  0.97120118     0.15100
H1444       H  0.57507812  0.81327865  0.80320415     0.15100
C1445       C  0.53631598  0.72253599  0.79520840     0.36700
C1446       C  0.62316889  0.81391222  0.97966719     0.36600
N1447       N  0.50415782  0.71836026  0.75925474    -0.43600
N1448       N  0.63952667  0.84858324  0.50635452    -0.43600
loop_ 
_geom_bond_atom_site_label_1 
_geom_bond_atom_site_label_2 
_geom_bond_distance 
_geom_bond_site_symmetry_2 
_ccdc_geom_bond_type 
O1            C9   1.280       .  A
O1         Co564   2.068   1_554  S
O2           C10   1.289       .  A
O2         Co384   2.062   1_554  S
O3           C11   1.278       .  A
O3         Co928   2.054   1_554  S
O4           C12   1.245       .  A
O4         Co748   1.992       .  S
O5           C11   1.287       .  A
O5          Co22   2.119   1_554  S
O6           C12   1.282       .  A
O6         Co202   2.062   1_554  S
O7           C10   1.255       .  A
O7          Co24   2.005       .  S
O8            C9   1.271       .  A
O8         Co204   2.040   1_554  S
C9           C36   1.620       .  S
C10          C33   1.595       .  S
C11          C32   1.655       .  S
C12          C35   1.585       .  S
O13          C26   1.245       .  A
O13         Co21   1.970       .  S
O14          C27   1.293       .  A
O14        Co203   2.049       .  S
O15          C28   1.284       .  A
O15         Co23   2.065       .  S
O16          C29   1.287       .  A
O16        Co205   2.088       .  S
O17          C29   1.277       .  A
O17        Co565   2.055       .  S
O18          C28   1.258       .  A
O18        Co383   2.043       .  S
O19          C26   1.285       .  A
O19        Co929   2.103       .  S
O20          C27   1.294       .  A
O20        Co747   2.082       .  S
Co21        O544   2.068   1_545  S
Co21        O187   2.062       .  S
Co21        O380   2.043   1_545  S
Co21        O568   2.193       .  S
Co22        O364   2.063   1_556  S
Co22        O195   2.049       .  S
Co22        O560   2.055       .  S
Co22        O749   2.153   1_456  S
Co23        O908   2.054       .  S
Co23        O189   2.040       .  S
Co23        O744   2.082       .  S
Co23        O206   2.143       .  S
Co24        O728   1.992   1_455  S
Co24        O197   2.088   1_554  S
Co24        O924   2.103   1_454  S
Co24       O1111   2.191   1_455  S
O25        Co564   2.193   1_554  S
O25        Co746   2.153   1_554  S
O25       Co1110   2.191       .  S
O25        Co204   2.143   1_554  S
C26          C34   1.590       .  S
C27          C31   1.609       .  S
C28          C37   1.630       .  S
C29          C30   1.638       .  S
C30         C146   1.628       .  S
C30         C161   1.657       .  S
C30         C170   1.616       .  S
C31         C122   1.607       .  S
C31         C134   1.630       .  S
C31         C173   1.636       .  S
C32         C101   1.658       .  S
C32         C110   1.627       .  S
C32         C125   1.593       .  S
C33          C86   1.584       .  S
C33          C98   1.646       .  S
C33         C149   1.642       .  S
C34          C62   1.634       .  S
C34          C74   1.595       .  S
C34         C158   1.646       .  S
C35          C53   1.630       .  S
C35          C65   1.642       .  S
C35          C89   1.581       .  S
C36          C38   1.601       .  S
C36          C50   1.644       .  S
C36         C113   1.648       .  S
C37          C41   1.609       .  S
C37          C77   1.566       .  S
C37         C137   1.614       .  S
C38          C39   1.372       .  A
C38          C43   1.420       .  A
C39          C40   1.383       .  A
C39          H44   1.072       .  S
C40          C41   1.408       .  A
C40          C47   1.427       .  S
C41          C42   1.444       .  A
C42          C43   1.464       .  A
C42          H45   1.075       .  S
C43          C46   1.424       .  S
C46          N48   1.156       .  T
C47          N49   1.152       .  T
C50          C51   1.421       .  A
C50          C55   1.456       .  A
C51          C52   1.412       .  A
C51          H56   1.072       .  S
C52          C53   1.408       .  A
C52          C59   1.424       .  S
C53          C54   1.424       .  A
C54          C55   1.449       .  A
C54          H57   1.078       .  S
C55          C58   1.438       .  S
C58          N60   1.158   1_554  T
C59          N61   1.154       .  T
C62          C63   1.424       .  A
C62          C67   1.411       .  A
C63          C64   1.455       .  A
C63          H68   1.082       .  S
C64          C65   1.441       .  A
C64          C71   1.424       .  S
C65          C66   1.411       .  A
C66          C67   1.385       .  A
C66          H69   1.064       .  S
C67          C70   1.399       .  S
C70          N72   1.141       .  T
C71          N73   1.157       .  T
C74          C75   1.415       .  A
C74          C79   1.422       .  A
C75          C76   1.425       .  A
C75          H80   1.055       .  S
C76          C77   1.388       .  A
C76          C83   1.429       .  S
C77          C78   1.385       .  A
C78          C79   1.395       .  A
C78          H81   1.081       .  S
C79          C82   1.401       .  S
C82          N84   1.146       .  T
C83          N85   1.157       .  T
C86          C87   1.422       .  A
C86          C91   1.408       .  A
C87          C88   1.425       .  A
C87          H92   1.082       .  S
C88          C89   1.418       .  A
C88          C95   1.424       .  S
C89          C90   1.372       .  A
C90          C91   1.396       .  A
C90          H93   1.067       .  S
C91          C94   1.412       .  S
C94          N96   1.146   1_554  T
C95         N459   1.153   1_545  T
N97         C457   1.153       .  T
C98          C99   1.432       .  A
C98         C103   1.421       .  A
C99         C100   1.453       .  A
C99         H104   1.078       .  S
C100        C101   1.434       .  A
C100        C107   1.433       .  S
C101        C102   1.431       .  A
C102        C103   1.425       .  A
C102        H105   1.071       .  S
C103        C106   1.422       .  S
C106        N108   1.149       .  T
C107        N833   1.155       .  T
N109        C831   1.155       .  T
C110        C111   1.406       .  A
C110        C115   1.423       .  A
C111        C112   1.428       .  A
C111        H116   1.077       .  S
C112        C113   1.416       .  A
C112        C119   1.383       .  S
C113        C114   1.416       .  A
C114        C115   1.422       .  A
C114        H117   1.064       .  S
C115        C118   1.427       .  S
C118        N120   1.150       .  T
C119        N302   1.137   1_554  T
N121        C300   1.137       .  T
C122        C123   1.399       .  A
C122        C127   1.450       .  A
C123        C124   1.379       .  A
C123        H128   1.060       .  S
C124        C125   1.392       .  A
C124        C131   1.424       .  S
C125        C126   1.429       .  A
C126        C127   1.457       .  A
C126        H129   1.081       .  S
C127        C130   1.440       .  S
C130        N132   1.157       .  T
C131        N133   1.152       .  T
C134        C135   1.433       .  A
C134        C139   1.417       .  A
C135        C136   1.434       .  A
C135        H140   1.058       .  S
C136        C137   1.402       .  A
C136        C143   1.421       .  S
C137        C138   1.415       .  A
C138        C139   1.393       .  A
C138        H141   1.069       .  S
C139        C142   1.416       .  S
C142        N144   1.153       .  T
C143        N507   1.153       .  T
N145        C505   1.153   1_545  T
C146        C147   1.395       .  A
C146        C151   1.371       .  A
C147        C148   1.448       .  A
C147        H152   1.069       .  S
C148        C149   1.429       .  A
C148        C155   1.429       .  S
C149        C150   1.436       .  A
C150        C151   1.426       .  A
C150        H153   1.063       .  S
C151        C154   1.410       .  S
C154        N156   1.145       .  T
C155        N157   1.154       .  T
C158        C159   1.402       .  A
C158        C163   1.449       .  A
C159        C160   1.409       .  A
C159        H164   1.081       .  S
C160        C161   1.420       .  A
C160        C167   1.385       .  S
C161        C162   1.435       .  A
C162        C163   1.467       .  A
C162        H165   1.081       .  S
C163        C166   1.425       .  S
C166        N349   1.152       .  T
C167        N169   1.134       .  T
N168        C347   1.152       .  T
C170        C171   1.409       .  A
C170        C175   1.432       .  A
C171        C172   1.425       .  A
C171        H176   1.077       .  S
C172        C173   1.401       .  A
C172        C179   1.360       .  S
C173        C174   1.382       .  A
C174        C175   1.401       .  A
C174        H177   1.051       .  S
C175        C178   1.422       .  S
C178        N180   1.159       .  T
C179        N362   1.134       .  T
N181        C360   1.134   1_554  T
O182        C190   1.280       .  A
O182       Co383   2.068       .  S
O183        C191   1.289       .  A
O183       Co565   2.062       .  S
O184        C192   1.278       .  A
O184       Co747   2.054       .  S
O185        C193   1.245       .  A
O185       Co929   1.992       .  S
O186        C192   1.288       .  A
O186       Co203   2.119       .  S
O187        C193   1.282       .  A
O188        C191   1.255       .  A
O188       Co205   2.005       .  S
O189        C190   1.271       .  A
C190        C217   1.620       .  S
C191        C214   1.595       .  S
C192        C213   1.655       .  S
C193        C216   1.585       .  S
O194        C207   1.245       .  A
O194       Co202   1.970       .  S
O195        C208   1.293       .  A
O196        C209   1.284       .  A
O196       Co204   2.065       .  S
O197        C210   1.287       .  A
O198        C210   1.277       .  A
O198       Co384   2.055       .  S
O199        C209   1.258       .  A
O199       Co564   2.043       .  S
O200        C207   1.285       .  A
O200       Co748   2.103   1_556  S
O201        C208   1.294       .  A
O201       Co928   2.082       .  S
Co202       O363   2.068   1_546  S
Co202       O561   2.043   1_545  S
Co202       O387   2.193   1_556  S
Co203       O545   2.062       .  S
Co203       O379   2.055       .  S
Co203       O930   2.153   1_455  S
Co204       O727   2.054   1_556  S
Co204       O925   2.082       .  S
Co205       O909   1.992   1_455  S
Co205       O743   2.103   1_455  S
Co205      O1292   2.191   1_455  S
O206       Co383   2.193       .  S
O206       Co927   2.153       .  S
O206      Co1291   2.191       .  S
C207        C215   1.590       .  S
C208        C212   1.609       .  S
C209        C218   1.630       .  S
C210        C211   1.638       .  S
C211        C327   1.628       .  S
C211        C342   1.657       .  S
C211        C351   1.616       .  S
C212        C303   1.607       .  S
C212        C315   1.630       .  S
C212        C354   1.636       .  S
C213        C282   1.658       .  S
C213        C291   1.627       .  S
C213        C306   1.593       .  S
C214        C267   1.584       .  S
C214        C279   1.646       .  S
C214        C330   1.642       .  S
C215        C243   1.634       .  S
C215        C255   1.596       .  S
C215        C339   1.646       .  S
C216        C234   1.630       .  S
C216        C246   1.642       .  S
C216        C270   1.581       .  S
C217        C219   1.601       .  S
C217        C231   1.644       .  S
C217        C294   1.648       .  S
C218        C222   1.609       .  S
C218        C258   1.566       .  S
C218        C318   1.614       .  S
C219        C220   1.372       .  A
C219        C224   1.420       .  A
C220        C221   1.383       .  A
C220        H225   1.072       .  S
C221        C222   1.408       .  A
C221        C228   1.427       .  S
C222        C223   1.444       .  A
C223        C224   1.464       .  A
C223        H226   1.075       .  S
C224        C227   1.424       .  S
C227        N229   1.156       .  T
C228        N230   1.152       .  T
C231        C232   1.421       .  A
C231        C236   1.456       .  A
C232        C233   1.412       .  A
C232        H237   1.073       .  S
C233        C234   1.408       .  A
C233        C240   1.424       .  S
C234        C235   1.424       .  A
C235        C236   1.449       .  A
C235        H238   1.078       .  S
C236        C239   1.438       .  S
C239        N241   1.158       .  T
C240        N242   1.154       .  T
C243        C244   1.424       .  A
C243        C248   1.411       .  A
C244        C245   1.455       .  A
C244        H249   1.082       .  S
C245        C246   1.441       .  A
C245        C252   1.424       .  S
C246        C247   1.411       .  A
C247        C248   1.385       .  A
C247        H250   1.064       .  S
C248        C251   1.399       .  S
C251        N253   1.141       .  T
C252        N254   1.157       .  T
C255        C256   1.415       .  A
C255        C260   1.422       .  A
C256        C257   1.425       .  A
C256        H261   1.055       .  S
C257        C258   1.388       .  A
C257        C264   1.429       .  S
C258        C259   1.385       .  A
C259        C260   1.395       .  A
C259        H262   1.081       .  S
C260        C263   1.401       .  S
C263        N265   1.146   1_556  T
C264        N266   1.157       .  T
C267        C268   1.422       .  A
C267        C272   1.408       .  A
C268        C269   1.425       .  A
C268        H273   1.082       .  S
C269        C270   1.418       .  A
C269        C276   1.424       .  S
C270        C271   1.372       .  A
C271        C272   1.396       .  A
C271        H274   1.067       .  S
C272        C275   1.412       .  S
C275        N277   1.146       .  T
C276        N640   1.153   1_545  T
N278        C638   1.153       .  T
C279        C280   1.432       .  A
C279        C284   1.421       .  A
C280        C281   1.453       .  A
C280        H285   1.078       .  S
C281        C282   1.434       .  A
C281        C288   1.433       .  S
C282        C283   1.431       .  A
C283        C284   1.425       .  A
C283        H286   1.071       .  S
C284        C287   1.422       .  S
C287        N289   1.149       .  T
C288       N1014   1.155       .  T
N290       C1012   1.155       .  T
C291        C292   1.406       .  A
C291        C296   1.423       .  A
C292        C293   1.428       .  A
C292        H297   1.077       .  S
C293        C294   1.416       .  A
C293        C300   1.383       .  S
C294        C295   1.416       .  A
C295        C296   1.422       .  A
C295        H298   1.064       .  S
C296        C299   1.427       .  S
C299        N301   1.150       .  T
C303        C304   1.399       .  A
C303        C308   1.450       .  A
C304        C305   1.379       .  A
C304        H309   1.060       .  S
C305        C306   1.392       .  A
C305        C312   1.424       .  S
C306        C307   1.429       .  A
C307        C308   1.457       .  A
C307        H310   1.081       .  S
C308        C311   1.440       .  S
C311        N313   1.157       .  T
C312        N314   1.152       .  T
C315        C316   1.433       .  A
C315        C320   1.417       .  A
C316        C317   1.434       .  A
C316        H321   1.058       .  S
C317        C318   1.402       .  A
C317        C324   1.421       .  S
C318        C319   1.415       .  A
C319        C320   1.394       .  A
C319        H322   1.069       .  S
C320        C323   1.416       .  S
C323        N325   1.153       .  T
C324        N688   1.153       .  T
N326        C686   1.153   1_545  T
C327        C328   1.395       .  A
C327        C332   1.371       .  A
C328        C329   1.448       .  A
C328        H333   1.069       .  S
C329        C330   1.429       .  A
C329        C336   1.429       .  S
C330        C331   1.436       .  A
C331        C332   1.426       .  A
C331        H334   1.063       .  S
C332        C335   1.410       .  S
C335        N337   1.145       .  T
C336        N338   1.154       .  T
C339        C340   1.402       .  A
C339        C344   1.449       .  A
C340        C341   1.409       .  A
C340        H345   1.081       .  S
C341        C342   1.420       .  A
C341        C348   1.385       .  S
C342        C343   1.435       .  A
C343        C344   1.467       .  A
C343        H346   1.081       .  S
C344        C347   1.425       .  S
C348        N350   1.134       .  T
C351        C352   1.409       .  A
C351        C356   1.431       .  A
C352        C353   1.425       .  A
C352        H357   1.077       .  S
C353        C354   1.401       .  A
C353        C360   1.360       .  S
C354        C355   1.382       .  A
C355        C356   1.401       .  A
C355        H358   1.051       .  S
C356        C359   1.422       .  S
C359        N361   1.159       .  T
O363        C371   1.280       .  A
O364        C372   1.289       .  A
O365        C373   1.278       .  A
O365      Co1290   2.054   1_554  S
O366        C374   1.245       .  A
O366      Co1110   1.992       .  S
O367        C373   1.287       .  A
O367       Co384   2.119   1_564  S
O368        C374   1.282       .  A
O368       Co564   2.063   1_554  S
O369        C372   1.255       .  A
O369       Co386   2.005       .  S
O370        C371   1.271       .  A
O370       Co566   2.040   1_554  S
C371        C398   1.620       .  S
C372        C395   1.595       .  S
C373        C394   1.655       .  S
C374        C397   1.585       .  S
O375        C388   1.245       .  A
O375       Co383   1.970       .  S
O376        C389   1.293       .  A
O376       Co565   2.049   1_565  S
O377        C390   1.284       .  A
O377       Co385   2.065       .  S
O378        C391   1.287       .  A
O378       Co567   2.088       .  S
O379        C391   1.277       .  A
O380        C390   1.258       .  A
O381        C388   1.285       .  A
O381      Co1291   2.103       .  S
O382        C389   1.294       .  A
O382      Co1109   2.082       .  S
Co383       O549   2.062       .  S
Co384       O557   2.049   1_545  S
Co384      O1111   2.153   1_456  S
Co385      O1270   2.054       .  S
Co385       O551   2.040       .  S
Co385      O1106   2.082       .  S
Co385       O568   2.143   1_565  S
Co386      O1090   1.992   1_455  S
Co386       O559   2.088   1_554  S
Co386      O1286   2.103   1_454  S
Co386       O749   2.191   1_455  S
O387      Co1108   2.153   1_554  S
O387       Co748   2.191       .  S
O387       Co566   2.143   1_544  S
C388        C396   1.590       .  S
C389        C393   1.609       .  S
C390        C399   1.630       .  S
C391        C392   1.638       .  S
C392        C508   1.628       .  S
C392        C523   1.657       .  S
C392        C532   1.616       .  S
C393        C484   1.607       .  S
C393        C496   1.630       .  S
C393        C535   1.636       .  S
C394        C463   1.658       .  S
C394        C472   1.627       .  S
C394        C487   1.593       .  S
C395        C448   1.584       .  S
C395        C460   1.646       .  S
C395        C511   1.642       .  S
C396        C424   1.634       .  S
C396        C436   1.595       .  S
C396        C520   1.646       .  S
C397        C415   1.630       .  S
C397        C427   1.642       .  S
C397        C451   1.581       .  S
C398        C400   1.601       .  S
C398        C412   1.644       .  S
C398        C475   1.648       .  S
C399        C403   1.609       .  S
C399        C439   1.566       .  S
C399        C499   1.614       .  S
C400        C401   1.372       .  A
C400        C405   1.420       .  A
C401        C402   1.383       .  A
C401        H406   1.072       .  S
C402        C403   1.408       .  A
C402        C409   1.427       .  S
C403        C404   1.444       .  A
C404        C405   1.464       .  A
C404        H407   1.075       .  S
C405        C408   1.424       .  S
C408        N410   1.156       .  T
C409        N411   1.152       .  T
C412        C413   1.421       .  A
C412        C417   1.456       .  A
C413        C414   1.412       .  A
C413        H418   1.072       .  S
C414        C415   1.408       .  A
C414        C421   1.424       .  S
C415        C416   1.424       .  A
C416        C417   1.449       .  A
C416        H419   1.078       .  S
C417        C420   1.438       .  S
C420        N422   1.158   1_554  T
C421        N423   1.154       .  T
C424        C425   1.424       .  A
C424        C429   1.411       .  A
C425        C426   1.455       .  A
C425        H430   1.082       .  S
C426        C427   1.441       .  A
C426        C433   1.424       .  S
C427        C428   1.411       .  A
C428        C429   1.385       .  A
C428        H431   1.064       .  S
C429        C432   1.399       .  S
C432        N434   1.141       .  T
C433        N435   1.157       .  T
C436        C437   1.415       .  A
C436        C441   1.422       .  A
C437        C438   1.425       .  A
C437        H442   1.055       .  S
C438        C439   1.388       .  A
C438        C445   1.429       .  S
C439        C440   1.385       .  A
C440        C441   1.395       .  A
C440        H443   1.081       .  S
C441        C444   1.401       .  S
C444        N446   1.146       .  T
C445        N447   1.157       .  T
C448        C449   1.422       .  A
C448        C453   1.408       .  A
C449        C450   1.425       .  A
C449        H454   1.082       .  S
C450        C451   1.418       .  A
C450        C457   1.424       .  S
C451        C452   1.372       .  A
C452        C453   1.396       .  A
C452        H455   1.067       .  S
C453        C456   1.412       .  S
C456        N458   1.146   1_554  T
C460        C461   1.432       .  A
C460        C465   1.421       .  A
C461        C462   1.453       .  A
C461        H466   1.078       .  S
C462        C463   1.434       .  A
C462        C469   1.433       .  S
C463        C464   1.431       .  A
C464        C465   1.425       .  A
C464        H467   1.071       .  S
C465        C468   1.422       .  S
C468        N470   1.149       .  T
C469       N1195   1.155       .  T
N471       C1193   1.155       .  T
C472        C473   1.406       .  A
C472        C477   1.423       .  A
C473        C474   1.428       .  A
C473        H478   1.077       .  S
C474        C475   1.416       .  A
C474        C481   1.383       .  S
C475        C476   1.416       .  A
C476        C477   1.422       .  A
C476        H479   1.064       .  S
C477        C480   1.427       .  S
C480        N482   1.150       .  T
C481        N664   1.137   1_554  T
N483        C662   1.137       .  T
C484        C485   1.399       .  A
C484        C489   1.450       .  A
C485        C486   1.379       .  A
C485        H490   1.060       .  S
C486        C487   1.392       .  A
C486        C493   1.424       .  S
C487        C488   1.429       .  A
C488        C489   1.457       .  A
C488        H491   1.081       .  S
C489        C492   1.440       .  S
C492        N494   1.157       .  T
C493        N495   1.152       .  T
C496        C497   1.433       .  A
C496        C501   1.417       .  A
C497        C498   1.434       .  A
C497        H502   1.058       .  S
C498        C499   1.402       .  A
C498        C505   1.421       .  S
C499        C500   1.415       .  A
C500        C501   1.393       .  A
C500        H503   1.069       .  S
C501        C504   1.416       .  S
C504        N506   1.153       .  T
C508        C509   1.395       .  A
C508        C513   1.371       .  A
C509        C510   1.448       .  A
C509        H514   1.069       .  S
C510        C511   1.429       .  A
C510        C517   1.429       .  S
C511        C512   1.436       .  A
C512        C513   1.426       .  A
C512        H515   1.063       .  S
C513        C516   1.410       .  S
C516        N518   1.145       .  T
C517        N519   1.154       .  T
C520        C521   1.402       .  A
C520        C525   1.449       .  A
C521        C522   1.409       .  A
C521        H526   1.081       .  S
C522        C523   1.420       .  A
C522        C529   1.385       .  S
C523        C524   1.435       .  A
C524        C525   1.467       .  A
C524        H527   1.081       .  S
C525        C528   1.425       .  S
C528        N711   1.152       .  T
C529        N531   1.134       .  T
N530        C709   1.152       .  T
C532        C533   1.409       .  A
C532        C537   1.432       .  A
C533        C534   1.425       .  A
C533        H538   1.077       .  S
C534        C535   1.401       .  A
C534        C541   1.360       .  S
C535        C536   1.382       .  A
C536        C537   1.401       .  A
C536        H539   1.051       .  S
C537        C540   1.422       .  S
C540        N542   1.159       .  T
C541        N724   1.134       .  T
N543        C722   1.134   1_554  T
O544        C552   1.280       .  A
O545        C553   1.289       .  A
O546        C554   1.278       .  A
O546      Co1109   2.054       .  S
O547        C555   1.245       .  A
O547      Co1291   1.992       .  S
O548        C554   1.288       .  A
O548       Co565   2.119   1_565  S
O549        C555   1.282       .  A
O550        C553   1.255       .  A
O550       Co567   2.005       .  S
O551        C552   1.271       .  A
C552        C579   1.620       .  S
C553        C576   1.595       .  S
C554        C575   1.655       .  S
C555        C578   1.585       .  S
O556        C569   1.245       .  A
O556       Co564   1.970       .  S
O557        C570   1.293       .  A
O558        C571   1.284       .  A
O558       Co566   2.065       .  S
O559        C572   1.287       .  A
O560        C572   1.277       .  A
O561        C571   1.258       .  A
O562        C569   1.285       .  A
O562      Co1110   2.103   1_556  S
O563        C570   1.294       .  A
O563      Co1290   2.082       .  S
Co565      O1292   2.153   1_455  S
Co566      O1089   2.054   1_556  S
Co566      O1287   2.082       .  S
Co567      O1271   1.992   1_455  S
Co567      O1105   2.103   1_455  S
Co567       O930   2.191   1_455  S
O568      Co1289   2.153       .  S
O568       Co929   2.191       .  S
C569        C577   1.590       .  S
C570        C574   1.609       .  S
C571        C580   1.630       .  S
C572        C573   1.638       .  S
C573        C689   1.628       .  S
C573        C704   1.657       .  S
C573        C713   1.616       .  S
C574        C665   1.607       .  S
C574        C677   1.630       .  S
C574        C716   1.636       .  S
C575        C644   1.658       .  S
C575        C653   1.627       .  S
C575        C668   1.593       .  S
C576        C629   1.584       .  S
C576        C641   1.646       .  S
C576        C692   1.642       .  S
C577        C605   1.634       .  S
C577        C617   1.596       .  S
C577        C701   1.646       .  S
C578        C596   1.630       .  S
C578        C608   1.642       .  S
C578        C632   1.581       .  S
C579        C581   1.601       .  S
C579        C593   1.644       .  S
C579        C656   1.648       .  S
C580        C584   1.609       .  S
C580        C620   1.566       .  S
C580        C680   1.614       .  S
C581        C582   1.372       .  A
C581        C586   1.420       .  A
C582        C583   1.383       .  A
C582        H587   1.072       .  S
C583        C584   1.408       .  A
C583        C590   1.427       .  S
C584        C585   1.444       .  A
C585        C586   1.464       .  A
C585        H588   1.075       .  S
C586        C589   1.424       .  S
C589        N591   1.156       .  T
C590        N592   1.152       .  T
C593        C594   1.421       .  A
C593        C598   1.456       .  A
C594        C595   1.412       .  A
C594        H599   1.073       .  S
C595        C596   1.408       .  A
C595        C602   1.424       .  S
C596        C597   1.424       .  A
C597        C598   1.449       .  A
C597        H600   1.078       .  S
C598        C601   1.438       .  S
C601        N603   1.158       .  T
C602        N604   1.154       .  T
C605        C606   1.424       .  A
C605        C610   1.411       .  A
C606        C607   1.455       .  A
C606        H611   1.082       .  S
C607        C608   1.441       .  A
C607        C614   1.424       .  S
C608        C609   1.411       .  A
C609        C610   1.385       .  A
C609        H612   1.064       .  S
C610        C613   1.399       .  S
C613        N615   1.141       .  T
C614        N616   1.157       .  T
C617        C618   1.415       .  A
C617        C622   1.422       .  A
C618        C619   1.425       .  A
C618        H623   1.055       .  S
C619        C620   1.388       .  A
C619        C626   1.429       .  S
C620        C621   1.385       .  A
C621        C622   1.395       .  A
C621        H624   1.081       .  S
C622        C625   1.401       .  S
C625        N627   1.146   1_556  T
C626        N628   1.157       .  T
C629        C630   1.422       .  A
C629        C634   1.408       .  A
C630        C631   1.425       .  A
C630        H635   1.082       .  S
C631        C632   1.418       .  A
C631        C638   1.424       .  S
C632        C633   1.372       .  A
C633        C634   1.396       .  A
C633        H636   1.067       .  S
C634        C637   1.412       .  S
C637        N639   1.146       .  T
C641        C642   1.432       .  A
C641        C646   1.421       .  A
C642        C643   1.453       .  A
C642        H647   1.078       .  S
C643        C644   1.434       .  A
C643        C650   1.433       .  S
C644        C645   1.431       .  A
C645        C646   1.425       .  A
C645        H648   1.071       .  S
C646        C649   1.422       .  S
C649        N651   1.149       .  T
C650       N1376   1.155       .  T
N652       C1374   1.155       .  T
C653        C654   1.406       .  A
C653        C658   1.423       .  A
C654        C655   1.428       .  A
C654        H659   1.077       .  S
C655        C656   1.416       .  A
C655        C662   1.383       .  S
C656        C657   1.416       .  A
C657        C658   1.422       .  A
C657        H660   1.064       .  S
C658        C661   1.427       .  S
C661        N663   1.150       .  T
C665        C666   1.399       .  A
C665        C670   1.450       .  A
C666        C667   1.379       .  A
C666        H671   1.060       .  S
C667        C668   1.392       .  A
C667        C674   1.424       .  S
C668        C669   1.429       .  A
C669        C670   1.457       .  A
C669        H672   1.081       .  S
C670        C673   1.440       .  S
C673        N675   1.157       .  T
C674        N676   1.152       .  T
C677        C678   1.433       .  A
C677        C682   1.417       .  A
C678        C679   1.434       .  A
C678        H683   1.058       .  S
C679        C680   1.402       .  A
C679        C686   1.421       .  S
C680        C681   1.415       .  A
C681        C682   1.394       .  A
C681        H684   1.069       .  S
C682        C685   1.416       .  S
C685        N687   1.153       .  T
C689        C690   1.395       .  A
C689        C694   1.371       .  A
C690        C691   1.448       .  A
C690        H695   1.069       .  S
C691        C692   1.429       .  A
C691        C698   1.429       .  S
C692        C693   1.436       .  A
C693        C694   1.426       .  A
C693        H696   1.063       .  S
C694        C697   1.410       .  S
C697        N699   1.145       .  T
C698        N700   1.154       .  T
C701        C702   1.402       .  A
C701        C706   1.449       .  A
C702        C703   1.409       .  A
C702        H707   1.081       .  S
C703        C704   1.420       .  A
C703        C710   1.385       .  S
C704        C705   1.435       .  A
C705        C706   1.467       .  A
C705        H708   1.081       .  S
C706        C709   1.425       .  S
C710        N712   1.134       .  T
C713        C714   1.409       .  A
C713        C718   1.431       .  A
C714        C715   1.425       .  A
C714        H719   1.077       .  S
C715        C716   1.401       .  A
C715        C722   1.360       .  S
C716        C717   1.382       .  A
C717        C718   1.401       .  A
C717        H720   1.051       .  S
C718        C721   1.422       .  S
C721        N723   1.159       .  T
O725        C733   1.280       .  A
O725      Co1288   2.068   1_554  S
O726        C734   1.289       .  A
O726      Co1108   2.062   1_554  S
O727        C735   1.278       .  A
O728        C736   1.245       .  A
O729        C735   1.287       .  A
O729       Co746   2.119   1_554  S
O730        C736   1.282       .  A
O730       Co926   2.062   1_554  S
O731        C734   1.255       .  A
O731       Co748   2.005       .  S
O732        C733   1.271       .  A
O732       Co928   2.040   1_654  S
C733        C760   1.620       .  S
C734        C757   1.595       .  S
C735        C756   1.655       .  S
C736        C759   1.585       .  S
O737        C750   1.245       .  A
O737       Co745   1.970       .  S
O738        C751   1.293       .  A
O738       Co927   2.049       .  S
O739        C752   1.284       .  A
O739       Co747   2.065   1_655  S
O740        C753   1.287       .  A
O740       Co929   2.088       .  S
O741        C753   1.277       .  A
O741      Co1289   2.055       .  S
O742        C752   1.258       .  A
O742      Co1107   2.043       .  S
O743        C750   1.285       .  A
O744        C751   1.294       .  A
Co745      O1268   2.068   1_545  S
Co745       O911   2.062       .  S
Co745      O1104   2.043   1_545  S
Co745      O1292   2.193       .  S
Co746      O1088   2.063   1_556  S
Co746       O919   2.049       .  S
Co746      O1284   2.055       .  S
Co747       O913   2.040   1_455  S
Co747       O930   2.143   1_455  S
Co748       O921   2.088   1_554  S
O749      Co1288   2.193   1_554  S
O749       Co928   2.143   1_654  S
C750        C758   1.590       .  S
C751        C755   1.609       .  S
C752        C761   1.630       .  S
C753        C754   1.638       .  S
C754        C870   1.628       .  S
C754        C885   1.657       .  S
C754        C894   1.616       .  S
C755        C846   1.607       .  S
C755        C858   1.630       .  S
C755        C897   1.636       .  S
C756        C825   1.658       .  S
C756        C834   1.627       .  S
C756        C849   1.593       .  S
C757        C810   1.584       .  S
C757        C822   1.646       .  S
C757        C873   1.642       .  S
C758        C786   1.634       .  S
C758        C798   1.595       .  S
C758        C882   1.646       .  S
C759        C777   1.630       .  S
C759        C789   1.642       .  S
C759        C813   1.581       .  S
C760        C762   1.601       .  S
C760        C774   1.644       .  S
C760        C837   1.648       .  S
C761        C765   1.609       .  S
C761        C801   1.566       .  S
C761        C861   1.614       .  S
C762        C763   1.372       .  A
C762        C767   1.420       .  A
C763        C764   1.383       .  A
C763        H768   1.072       .  S
C764        C765   1.408       .  A
C764        C771   1.427       .  S
C765        C766   1.444       .  A
C766        C767   1.464       .  A
C766        H769   1.075       .  S
C767        C770   1.424       .  S
C770        N772   1.156       .  T
C771        N773   1.152       .  T
C774        C775   1.421       .  A
C774        C779   1.456       .  A
C775        C776   1.412       .  A
C775        H780   1.072       .  S
C776        C777   1.408       .  A
C776        C783   1.424       .  S
C777        C778   1.424       .  A
C778        C779   1.449       .  A
C778        H781   1.078       .  S
C779        C782   1.438       .  S
C782        N784   1.158   1_554  T
C783        N785   1.154       .  T
C786        C787   1.424       .  A
C786        C791   1.411       .  A
C787        C788   1.455       .  A
C787        H792   1.082       .  S
C788        C789   1.441       .  A
C788        C795   1.424       .  S
C789        C790   1.411       .  A
C790        C791   1.385       .  A
C790        H793   1.064       .  S
C791        C794   1.399       .  S
C794        N796   1.141       .  T
C795        N797   1.157   1_655  T
C798        C799   1.415       .  A
C798        C803   1.422       .  A
C799        C800   1.425       .  A
C799        H804   1.055       .  S
C800        C801   1.388       .  A
C800        C807   1.429       .  S
C801        C802   1.385       .  A
C802        C803   1.395       .  A
C802        H805   1.081       .  S
C803        C806   1.401       .  S
C806        N808   1.146       .  T
C807        N809   1.157       .  T
C810        C811   1.422       .  A
C810        C815   1.408       .  A
C811        C812   1.425       .  A
C811        H816   1.082       .  S
C812        C813   1.418       .  A
C812        C819   1.424       .  S
C813        C814   1.372       .  A
C814        C815   1.396       .  A
C814        H817   1.067       .  S
C815        C818   1.412       .  S
C818        N820   1.146   1_554  T
C819       N1183   1.153   1_545  T
N821       C1181   1.153       .  T
C822        C823   1.432       .  A
C822        C827   1.421       .  A
C823        C824   1.453       .  A
C823        H828   1.078       .  S
C824        C825   1.434       .  A
C824        C831   1.433       .  S
C825        C826   1.431       .  A
C826        C827   1.425       .  A
C826        H829   1.071       .  S
C827        C830   1.422       .  S
C830        N832   1.149       .  T
C834        C835   1.406       .  A
C834        C839   1.423       .  A
C835        C836   1.428       .  A
C835        H840   1.077       .  S
C836        C837   1.416       .  A
C836        C843   1.383       .  S
C837        C838   1.416       .  A
C838        C839   1.422       .  A
C838        H841   1.064       .  S
C839        C842   1.427       .  S
C842        N844   1.150       .  T
C843       N1026   1.137   1_554  T
N845       C1024   1.137       .  T
C846        C847   1.399       .  A
C846        C851   1.450       .  A
C847        C848   1.379       .  A
C847        H852   1.060       .  S
C848        C849   1.392       .  A
C848        C855   1.424       .  S
C849        C850   1.429       .  A
C850        C851   1.457       .  A
C850        H853   1.081       .  S
C851        C854   1.440       .  S
C854        N856   1.157       .  T
C855        N857   1.152       .  T
C858        C859   1.433       .  A
C858        C863   1.417       .  A
C859        C860   1.434       .  A
C859        H864   1.058       .  S
C860        C861   1.402       .  A
C860        C867   1.421       .  S
C861        C862   1.415       .  A
C862        C863   1.393       .  A
C862        H865   1.069       .  S
C863        C866   1.416       .  S
C866        N868   1.153       .  T
C867       N1231   1.153       .  T
N869       C1229   1.153   1_545  T
C870        C871   1.395       .  A
C870        C875   1.371       .  A
C871        C872   1.448       .  A
C871        H876   1.069       .  S
C872        C873   1.429       .  A
C872        C879   1.429       .  S
C873        C874   1.436       .  A
C874        C875   1.426       .  A
C874        H877   1.063       .  S
C875        C878   1.410       .  S
C878        N880   1.145       .  T
C879        N881   1.154       .  T
C882        C883   1.402       .  A
C882        C887   1.449       .  A
C883        C884   1.409       .  A
C883        H888   1.081       .  S
C884        C885   1.420       .  A
C884        C891   1.385       .  S
C885        C886   1.435       .  A
C886        C887   1.467       .  A
C886        H889   1.081       .  S
C887        C890   1.425       .  S
C890       N1073   1.152       .  T
C891        N893   1.134       .  T
N892       C1071   1.152       .  T
C894        C895   1.409       .  A
C894        C899   1.432       .  A
C895        C896   1.425       .  A
C895        H900   1.077       .  S
C896        C897   1.401       .  A
C896        C903   1.360       .  S
C897        C898   1.382       .  A
C898        C899   1.401       .  A
C898        H901   1.051       .  S
C899        C902   1.422       .  S
C902        N904   1.159       .  T
C903       N1086   1.134       .  T
N905       C1084   1.134   1_554  T
O906        C914   1.280       .  A
O906      Co1107   2.068       .  S
O907        C915   1.289       .  A
O907      Co1289   2.062       .  S
O908        C916   1.278       .  A
O909        C917   1.245       .  A
O910        C916   1.288       .  A
O910       Co927   2.119       .  S
O911        C917   1.282       .  A
O912        C915   1.255       .  A
O912       Co929   2.005       .  S
O913        C914   1.271       .  A
C914        C941   1.620       .  S
C915        C938   1.595       .  S
C916        C937   1.655       .  S
C917        C940   1.585       .  S
O918        C931   1.245       .  A
O918       Co926   1.970       .  S
O919        C932   1.293       .  A
O920        C933   1.284       .  A
O920       Co928   2.065   1_655  S
O921        C934   1.287       .  A
O922        C934   1.277       .  A
O922      Co1108   2.055       .  S
O923        C933   1.258       .  A
O923      Co1288   2.043       .  S
O924        C931   1.285       .  A
O925        C932   1.294       .  A
Co926      O1087   2.068   1_546  S
Co926      O1285   2.043   1_545  S
Co926      O1111   2.193   1_556  S
Co927      O1269   2.062       .  S
Co927      O1103   2.055       .  S
O930      Co1107   2.193       .  S
C931        C939   1.590       .  S
C932        C936   1.609       .  S
C933        C942   1.630       .  S
C934        C935   1.638       .  S
C935       C1051   1.628       .  S
C935       C1066   1.657       .  S
C935       C1075   1.616       .  S
C936       C1027   1.607       .  S
C936       C1039   1.630       .  S
C936       C1078   1.636       .  S
C937       C1006   1.658       .  S
C937       C1015   1.627       .  S
C937       C1030   1.593       .  S
C938        C991   1.584       .  S
C938       C1003   1.646       .  S
C938       C1054   1.642       .  S
C939        C967   1.634       .  S
C939        C979   1.596       .  S
C939       C1063   1.646       .  S
C940        C958   1.630       .  S
C940        C970   1.642       .  S
C940        C994   1.581       .  S
C941        C943   1.601       .  S
C941        C955   1.644       .  S
C941       C1018   1.648       .  S
C942        C946   1.609       .  S
C942        C982   1.566       .  S
C942       C1042   1.614       .  S
C943        C944   1.372       .  A
C943        C948   1.420       .  A
C944        C945   1.383       .  A
C944        H949   1.072       .  S
C945        C946   1.408       .  A
C945        C952   1.427       .  S
C946        C947   1.444       .  A
C947        C948   1.464       .  A
C947        H950   1.075       .  S
C948        C951   1.424       .  S
C951        N953   1.156       .  T
C952        N954   1.152       .  T
C955        C956   1.421       .  A
C955        C960   1.456       .  A
C956        C957   1.412       .  A
C956        H961   1.073       .  S
C957        C958   1.408       .  A
C957        C964   1.424       .  S
C958        C959   1.424       .  A
C959        C960   1.449       .  A
C959        H962   1.078       .  S
C960        C963   1.438       .  S
C963        N965   1.158       .  T
C964        N966   1.154       .  T
C967        C968   1.424       .  A
C967        C972   1.411       .  A
C968        C969   1.455       .  A
C968        H973   1.082       .  S
C969        C970   1.441       .  A
C969        C976   1.424       .  S
C970        C971   1.411       .  A
C971        C972   1.385       .  A
C971        H974   1.064       .  S
C972        C975   1.399       .  S
C975        N977   1.141       .  T
C976        N978   1.157   1_655  T
C979        C980   1.415       .  A
C979        C984   1.422       .  A
C980        C981   1.425       .  A
C980        H985   1.055       .  S
C981        C982   1.388       .  A
C981        C988   1.429       .  S
C982        C983   1.385       .  A
C983        C984   1.395       .  A
C983        H986   1.081       .  S
C984        C987   1.401       .  S
C987        N989   1.146   1_556  T
C988        N990   1.157       .  T
C991        C992   1.422       .  A
C991        C996   1.408       .  A
C992        C993   1.425       .  A
C992        H997   1.082       .  S
C993        C994   1.418       .  A
C993       C1000   1.424       .  S
C994        C995   1.372       .  A
C995        C996   1.396       .  A
C995        H998   1.067       .  S
C996        C999   1.412       .  S
C999       N1001   1.146       .  T
C1000      N1364   1.153   1_545  T
N1002      C1362   1.153       .  T
C1003      C1004   1.432       .  A
C1003      C1008   1.421       .  A
C1004      C1005   1.453       .  A
C1004      H1009   1.078       .  S
C1005      C1006   1.434       .  A
C1005      C1012   1.433       .  S
C1006      C1007   1.431       .  A
C1007      C1008   1.425       .  A
C1007      H1010   1.071       .  S
C1008      C1011   1.422       .  S
C1011      N1013   1.149       .  T
C1015      C1016   1.406       .  A
C1015      C1020   1.423       .  A
C1016      C1017   1.428       .  A
C1016      H1021   1.077       .  S
C1017      C1018   1.416       .  A
C1017      C1024   1.383       .  S
C1018      C1019   1.416       .  A
C1019      C1020   1.422       .  A
C1019      H1022   1.064       .  S
C1020      C1023   1.427       .  S
C1023      N1025   1.150       .  T
C1027      C1028   1.399       .  A
C1027      C1032   1.450       .  A
C1028      C1029   1.379       .  A
C1028      H1033   1.060       .  S
C1029      C1030   1.392       .  A
C1029      C1036   1.424       .  S
C1030      C1031   1.429       .  A
C1031      C1032   1.457       .  A
C1031      H1034   1.081       .  S
C1032      C1035   1.440       .  S
C1035      N1037   1.157       .  T
C1036      N1038   1.152       .  T
C1039      C1040   1.433       .  A
C1039      C1044   1.417       .  A
C1040      C1041   1.434       .  A
C1040      H1045   1.058       .  S
C1041      C1042   1.402       .  A
C1041      C1048   1.421       .  S
C1042      C1043   1.415       .  A
C1043      C1044   1.394       .  A
C1043      H1046   1.069       .  S
C1044      C1047   1.416       .  S
C1047      N1049   1.153       .  T
C1048      N1412   1.153       .  T
N1050      C1410   1.153   1_545  T
C1051      C1052   1.395       .  A
C1051      C1056   1.371       .  A
C1052      C1053   1.448       .  A
C1052      H1057   1.069       .  S
C1053      C1054   1.429       .  A
C1053      C1060   1.429       .  S
C1054      C1055   1.436       .  A
C1055      C1056   1.426       .  A
C1055      H1058   1.063       .  S
C1056      C1059   1.410       .  S
C1059      N1061   1.145       .  T
C1060      N1062   1.154       .  T
C1063      C1064   1.402       .  A
C1063      C1068   1.449       .  A
C1064      C1065   1.409       .  A
C1064      H1069   1.081       .  S
C1065      C1066   1.420       .  A
C1065      C1072   1.385       .  S
C1066      C1067   1.435       .  A
C1067      C1068   1.467       .  A
C1067      H1070   1.081       .  S
C1068      C1071   1.425       .  S
C1072      N1074   1.134       .  T
C1075      C1076   1.409       .  A
C1075      C1080   1.431       .  A
C1076      C1077   1.425       .  A
C1076      H1081   1.077       .  S
C1077      C1078   1.401       .  A
C1077      C1084   1.360       .  S
C1078      C1079   1.382       .  A
C1079      C1080   1.401       .  A
C1079      H1082   1.051       .  S
C1080      C1083   1.422       .  S
C1083      N1085   1.159       .  T
O1087      C1095   1.280       .  A
O1088      C1096   1.289       .  A
O1089      C1097   1.278       .  A
O1090      C1098   1.245       .  A
O1091      C1097   1.287       .  A
O1091     Co1108   2.119   1_564  S
O1092      C1098   1.282       .  A
O1092     Co1288   2.063   1_554  S
O1093      C1096   1.255       .  A
O1093     Co1110   2.005       .  S
O1094      C1095   1.271       .  A
O1094     Co1290   2.040   1_654  S
C1095      C1122   1.620       .  S
C1096      C1119   1.595       .  S
C1097      C1118   1.655       .  S
C1098      C1121   1.585       .  S
O1099      C1112   1.245       .  A
O1099     Co1107   1.970       .  S
O1100      C1113   1.293       .  A
O1100     Co1289   2.049   1_565  S
O1101      C1114   1.284       .  A
O1101     Co1109   2.065   1_655  S
O1102      C1115   1.287       .  A
O1102     Co1291   2.088       .  S
O1103      C1115   1.277       .  A
O1104      C1114   1.258       .  A
O1105      C1112   1.285       .  A
O1106      C1113   1.294       .  A
Co1107     O1273   2.062       .  S
Co1108     O1281   2.049   1_545  S
Co1109     O1275   2.040   1_455  S
Co1109     O1292   2.143   1_465  S
Co1110     O1283   2.088   1_554  S
O1111     Co1290   2.143   1_644  S
C1112      C1120   1.590       .  S
C1113      C1117   1.609       .  S
C1114      C1123   1.630       .  S
C1115      C1116   1.638       .  S
C1116      C1232   1.628       .  S
C1116      C1247   1.657       .  S
C1116      C1256   1.616       .  S
C1117      C1208   1.607       .  S
C1117      C1220   1.630       .  S
C1117      C1259   1.636       .  S
C1118      C1187   1.658       .  S
C1118      C1196   1.627       .  S
C1118      C1211   1.593       .  S
C1119      C1172   1.584       .  S
C1119      C1184   1.646       .  S
C1119      C1235   1.642       .  S
C1120      C1148   1.634       .  S
C1120      C1160   1.595       .  S
C1120      C1244   1.646       .  S
C1121      C1139   1.630       .  S
C1121      C1151   1.642       .  S
C1121      C1175   1.581       .  S
C1122      C1124   1.601       .  S
C1122      C1136   1.644       .  S
C1122      C1199   1.648       .  S
C1123      C1127   1.609       .  S
C1123      C1163   1.566       .  S
C1123      C1223   1.614       .  S
C1124      C1125   1.372       .  A
C1124      C1129   1.420       .  A
C1125      C1126   1.383       .  A
C1125      H1130   1.072       .  S
C1126      C1127   1.408       .  A
C1126      C1133   1.427       .  S
C1127      C1128   1.444       .  A
C1128      C1129   1.464       .  A
C1128      H1131   1.075       .  S
C1129      C1132   1.424       .  S
C1132      N1134   1.156       .  T
C1133      N1135   1.152       .  T
C1136      C1137   1.421       .  A
C1136      C1141   1.456       .  A
C1137      C1138   1.412       .  A
C1137      H1142   1.072       .  S
C1138      C1139   1.408       .  A
C1138      C1145   1.424       .  S
C1139      C1140   1.424       .  A
C1140      C1141   1.449       .  A
C1140      H1143   1.078       .  S
C1141      C1144   1.438       .  S
C1144      N1146   1.158   1_554  T
C1145      N1147   1.154       .  T
C1148      C1149   1.424       .  A
C1148      C1153   1.411       .  A
C1149      C1150   1.455       .  A
C1149      H1154   1.082       .  S
C1150      C1151   1.441       .  A
C1150      C1157   1.424       .  S
C1151      C1152   1.411       .  A
C1152      C1153   1.385       .  A
C1152      H1155   1.064       .  S
C1153      C1156   1.399       .  S
C1156      N1158   1.141       .  T
C1157      N1159   1.157   1_655  T
C1160      C1161   1.415       .  A
C1160      C1165   1.422       .  A
C1161      C1162   1.425       .  A
C1161      H1166   1.055       .  S
C1162      C1163   1.388       .  A
C1162      C1169   1.429       .  S
C1163      C1164   1.385       .  A
C1164      C1165   1.395       .  A
C1164      H1167   1.081       .  S
C1165      C1168   1.401       .  S
C1168      N1170   1.146       .  T
C1169      N1171   1.157       .  T
C1172      C1173   1.422       .  A
C1172      C1177   1.408       .  A
C1173      C1174   1.425       .  A
C1173      H1178   1.082       .  S
C1174      C1175   1.418       .  A
C1174      C1181   1.424       .  S
C1175      C1176   1.372       .  A
C1176      C1177   1.396       .  A
C1176      H1179   1.067       .  S
C1177      C1180   1.412       .  S
C1180      N1182   1.146   1_554  T
C1184      C1185   1.432       .  A
C1184      C1189   1.421       .  A
C1185      C1186   1.453       .  A
C1185      H1190   1.078       .  S
C1186      C1187   1.434       .  A
C1186      C1193   1.433       .  S
C1187      C1188   1.431       .  A
C1188      C1189   1.425       .  A
C1188      H1191   1.071       .  S
C1189      C1192   1.422       .  S
C1192      N1194   1.149       .  T
C1196      C1197   1.406       .  A
C1196      C1201   1.423       .  A
C1197      C1198   1.428       .  A
C1197      H1202   1.077       .  S
C1198      C1199   1.416       .  A
C1198      C1205   1.383       .  S
C1199      C1200   1.416       .  A
C1200      C1201   1.422       .  A
C1200      H1203   1.064       .  S
C1201      C1204   1.427       .  S
C1204      N1206   1.150       .  T
C1205      N1388   1.137   1_554  T
N1207      C1386   1.137       .  T
C1208      C1209   1.399       .  A
C1208      C1213   1.450       .  A
C1209      C1210   1.379       .  A
C1209      H1214   1.060       .  S
C1210      C1211   1.392       .  A
C1210      C1217   1.424       .  S
C1211      C1212   1.429       .  A
C1212      C1213   1.457       .  A
C1212      H1215   1.081       .  S
C1213      C1216   1.440       .  S
C1216      N1218   1.157       .  T
C1217      N1219   1.152       .  T
C1220      C1221   1.433       .  A
C1220      C1225   1.417       .  A
C1221      C1222   1.434       .  A
C1221      H1226   1.058       .  S
C1222      C1223   1.402       .  A
C1222      C1229   1.421       .  S
C1223      C1224   1.415       .  A
C1224      C1225   1.394       .  A
C1224      H1227   1.069       .  S
C1225      C1228   1.416       .  S
C1228      N1230   1.153       .  T
C1232      C1233   1.395       .  A
C1232      C1237   1.371       .  A
C1233      C1234   1.448       .  A
C1233      H1238   1.069       .  S
C1234      C1235   1.429       .  A
C1234      C1241   1.429       .  S
C1235      C1236   1.436       .  A
C1236      C1237   1.426       .  A
C1236      H1239   1.063       .  S
C1237      C1240   1.410       .  S
C1240      N1242   1.145       .  T
C1241      N1243   1.154       .  T
C1244      C1245   1.402       .  A
C1244      C1249   1.449       .  A
C1245      C1246   1.409       .  A
C1245      H1250   1.081       .  S
C1246      C1247   1.420       .  A
C1246      C1253   1.385       .  S
C1247      C1248   1.435       .  A
C1248      C1249   1.467       .  A
C1248      H1251   1.081       .  S
C1249      C1252   1.425       .  S
C1252      N1435   1.152       .  T
C1253      N1255   1.134       .  T
N1254      C1433   1.152       .  T
C1256      C1257   1.409       .  A
C1256      C1261   1.432       .  A
C1257      C1258   1.425       .  A
C1257      H1262   1.077       .  S
C1258      C1259   1.401       .  A
C1258      C1265   1.360       .  S
C1259      C1260   1.382       .  A
C1260      C1261   1.401       .  A
C1260      H1263   1.051       .  S
C1261      C1264   1.422       .  S
C1264      N1266   1.159       .  T
C1265      N1448   1.134       .  T
N1267      C1446   1.134   1_554  T
O1268      C1276   1.280       .  A
O1269      C1277   1.289       .  A
O1270      C1278   1.278       .  A
O1271      C1279   1.245       .  A
O1272      C1278   1.288       .  A
O1272     Co1289   2.119   1_565  S
O1273      C1279   1.282       .  A
O1274      C1277   1.255       .  A
O1274     Co1291   2.005       .  S
O1275      C1276   1.271       .  A
C1276      C1303   1.620       .  S
C1277      C1300   1.595       .  S
C1278      C1299   1.655       .  S
C1279      C1302   1.585       .  S
O1280      C1293   1.245       .  A
O1280     Co1288   1.970       .  S
O1281      C1294   1.293       .  A
O1282      C1295   1.284       .  A
O1282     Co1290   2.065   1_655  S
O1283      C1296   1.287       .  A
O1284      C1296   1.277       .  A
O1285      C1295   1.258       .  A
O1286      C1293   1.285       .  A
O1287      C1294   1.294       .  A
C1293      C1301   1.590       .  S
C1294      C1298   1.609       .  S
C1295      C1304   1.630       .  S
C1296      C1297   1.638       .  S
C1297      C1413   1.628       .  S
C1297      C1428   1.657       .  S
C1297      C1437   1.616       .  S
C1298      C1389   1.607       .  S
C1298      C1401   1.630       .  S
C1298      C1440   1.636       .  S
C1299      C1368   1.658       .  S
C1299      C1377   1.627       .  S
C1299      C1392   1.593       .  S
C1300      C1353   1.584       .  S
C1300      C1365   1.646       .  S
C1300      C1416   1.642       .  S
C1301      C1329   1.634       .  S
C1301      C1341   1.596       .  S
C1301      C1425   1.646       .  S
C1302      C1320   1.630       .  S
C1302      C1332   1.642       .  S
C1302      C1356   1.581       .  S
C1303      C1305   1.601       .  S
C1303      C1317   1.644       .  S
C1303      C1380   1.648       .  S
C1304      C1308   1.609       .  S
C1304      C1344   1.566       .  S
C1304      C1404   1.614       .  S
C1305      C1306   1.372       .  A
C1305      C1310   1.420       .  A
C1306      C1307   1.383       .  A
C1306      H1311   1.072       .  S
C1307      C1308   1.408       .  A
C1307      C1314   1.427       .  S
C1308      C1309   1.444       .  A
C1309      C1310   1.464       .  A
C1309      H1312   1.075       .  S
C1310      C1313   1.424       .  S
C1313      N1315   1.156       .  T
C1314      N1316   1.152       .  T
C1317      C1318   1.421       .  A
C1317      C1322   1.456       .  A
C1318      C1319   1.412       .  A
C1318      H1323   1.073       .  S
C1319      C1320   1.408       .  A
C1319      C1326   1.424       .  S
C1320      C1321   1.424       .  A
C1321      C1322   1.449       .  A
C1321      H1324   1.078       .  S
C1322      C1325   1.438       .  S
C1325      N1327   1.158       .  T
C1326      N1328   1.154       .  T
C1329      C1330   1.424       .  A
C1329      C1334   1.411       .  A
C1330      C1331   1.455       .  A
C1330      H1335   1.082       .  S
C1331      C1332   1.441       .  A
C1331      C1338   1.424       .  S
C1332      C1333   1.411       .  A
C1333      C1334   1.385       .  A
C1333      H1336   1.064       .  S
C1334      C1337   1.399       .  S
C1337      N1339   1.141       .  T
C1338      N1340   1.157   1_655  T
C1341      C1342   1.415       .  A
C1341      C1346   1.422       .  A
C1342      C1343   1.425       .  A
C1342      H1347   1.055       .  S
C1343      C1344   1.388       .  A
C1343      C1350   1.429       .  S
C1344      C1345   1.385       .  A
C1345      C1346   1.395       .  A
C1345      H1348   1.081       .  S
C1346      C1349   1.401       .  S
C1349      N1351   1.146   1_556  T
C1350      N1352   1.157       .  T
C1353      C1354   1.422       .  A
C1353      C1358   1.408       .  A
C1354      C1355   1.425       .  A
C1354      H1359   1.082       .  S
C1355      C1356   1.418       .  A
C1355      C1362   1.424       .  S
C1356      C1357   1.372       .  A
C1357      C1358   1.396       .  A
C1357      H1360   1.067       .  S
C1358      C1361   1.412       .  S
C1361      N1363   1.146       .  T
C1365      C1366   1.432       .  A
C1365      C1370   1.421       .  A
C1366      C1367   1.453       .  A
C1366      H1371   1.078       .  S
C1367      C1368   1.434       .  A
C1367      C1374   1.433       .  S
C1368      C1369   1.431       .  A
C1369      C1370   1.425       .  A
C1369      H1372   1.071       .  S
C1370      C1373   1.422       .  S
C1373      N1375   1.149       .  T
C1377      C1378   1.406       .  A
C1377      C1382   1.423       .  A
C1378      C1379   1.428       .  A
C1378      H1383   1.077       .  S
C1379      C1380   1.416       .  A
C1379      C1386   1.383       .  S
C1380      C1381   1.416       .  A
C1381      C1382   1.422       .  A
C1381      H1384   1.064       .  S
C1382      C1385   1.427       .  S
C1385      N1387   1.150       .  T
C1389      C1390   1.399       .  A
C1389      C1394   1.450       .  A
C1390      C1391   1.379       .  A
C1390      H1395   1.060       .  S
C1391      C1392   1.392       .  A
C1391      C1398   1.424       .  S
C1392      C1393   1.429       .  A
C1393      C1394   1.457       .  A
C1393      H1396   1.081       .  S
C1394      C1397   1.440       .  S
C1397      N1399   1.157       .  T
C1398      N1400   1.152       .  T
C1401      C1402   1.433       .  A
C1401      C1406   1.417       .  A
C1402      C1403   1.434       .  A
C1402      H1407   1.058       .  S
C1403      C1404   1.402       .  A
C1403      C1410   1.421       .  S
C1404      C1405   1.415       .  A
C1405      C1406   1.394       .  A
C1405      H1408   1.069       .  S
C1406      C1409   1.416       .  S
C1409      N1411   1.153       .  T
C1413      C1414   1.395       .  A
C1413      C1418   1.371       .  A
C1414      C1415   1.448       .  A
C1414      H1419   1.069       .  S
C1415      C1416   1.429       .  A
C1415      C1422   1.429       .  S
C1416      C1417   1.436       .  A
C1417      C1418   1.426       .  A
C1417      H1420   1.063       .  S
C1418      C1421   1.410       .  S
C1421      N1423   1.145       .  T
C1422      N1424   1.154       .  T
C1425      C1426   1.402       .  A
C1425      C1430   1.449       .  A
C1426      C1427   1.409       .  A
C1426      H1431   1.081       .  S
C1427      C1428   1.420       .  A
C1427      C1434   1.385       .  S
C1428      C1429   1.435       .  A
C1429      C1430   1.467       .  A
C1429      H1432   1.081       .  S
C1430      C1433   1.425       .  S
C1434      N1436   1.134       .  T
C1437      C1438   1.409       .  A
C1437      C1442   1.431       .  A
C1438      C1439   1.425       .  A
C1438      H1443   1.077       .  S
C1439      C1440   1.401       .  A
C1439      C1446   1.360       .  S
C1440      C1441   1.382       .  A
C1441      C1442   1.401       .  A
C1441      H1444   1.051       .  S
C1442      C1445   1.422       .  S
C1445      N1447   1.159       .  T
