geometry optimzed in LAMMPS
_audit_creation_date              2020-12-01 
_audit_creation_method            'lammps2cif' 
_symmetry_space_group_name_H-M    'P1' 
_symmetry_Int_Tables_number       1 
_symmetry_cell_setting            triclinic 
loop_ 
_symmetry_equiv_pos_as_xyz 
  x,y,z 
_cell_length_a                    52.25322229 
_cell_length_b                    52.31553680500876 
_cell_length_c                    42.67135760298439 
_cell_angle_alpha                 90.16395234134993 
_cell_angle_beta                  89.97433876506595 
_cell_angle_gamma                 120.02008382380711 
loop_ 
_atom_site_label 
_atom_site_type_symbol 
_atom_site_fract_x 
_atom_site_fract_y 
_atom_site_fract_z 
_atom_site_charge 
C1          C  0.23372363  0.36712071  0.15021471     0.79700
N2          N  0.23738459  0.34649939  0.13433704    -0.78600
C3          C  0.24252255  0.34903466  0.10277101     0.82200
N4          N  0.24411204  0.37236748  0.08702245    -0.78500
C5          C  0.23940693  0.39233247  0.10255954     0.82300
N6          N  0.23389124  0.38927890  0.13374278    -0.80200
C7          C  0.23410985  0.36972478  0.38787504     0.79700
N8          N  0.23752442  0.39367136  0.40406711    -0.78600
C9          C  0.24356389  0.39629739  0.43539887     0.82200
N10         N  0.24602712  0.37479890  0.45057830    -0.78500
C11         C  0.24189435  0.35051577  0.43460567     0.82300
N12         N  0.23614118  0.34821562  0.40338306    -0.80200
C13         C  0.09630152  0.37098964  0.38683294     0.79700
N14         N  0.11785553  0.39425231  0.40279662    -0.78600
C15         C  0.11559663  0.39716186  0.43412304     0.82200
N16         N  0.09175437  0.37626945  0.44993859    -0.78500
C17         C  0.07065349  0.35217638  0.43440174     0.82300
N18         N  0.07301807  0.34957474  0.40293377    -0.80200
C19         C  0.09798382  0.36739770  0.15062298     0.79700
N20         N  0.07490438  0.34574608  0.13455522    -0.78600
C21         C  0.07128299  0.34865932  0.10355335     0.82200
N22         N  0.09087051  0.37352214  0.08823121    -0.78500
C23         C  0.11439752  0.39513726  0.10391124     0.82300
N24         N  0.11788703  0.39206640  0.13507220    -0.80200
C25         C  0.09920856  0.23343703  0.14983460     0.79700
N26         N  0.07464938  0.22852288  0.13371638    -0.78600
C27         C  0.07090995  0.22013344  0.10296429     0.82200
N28         N  0.09178245  0.21626586  0.08819009    -0.78500
C29         C  0.11648760  0.22138611  0.10396193     0.82300
N30         N  0.12005302  0.22999705  0.13448094    -0.80200
C31         C  0.09620943  0.22646711  0.38582135     0.79700
N32         N  0.07238625  0.22423058  0.40098458    -0.78600
C33         C  0.06876712  0.21855440  0.43221041     0.82200
N34         N  0.08906104  0.21490283  0.44845379    -0.78500
C35         C  0.11333485  0.21773891  0.43354181     0.82300
N36         N  0.11693531  0.22369273  0.40226440    -0.80200
C37         C  0.35628876  0.10887031  0.38762228     0.79700
N38         N  0.37957737  0.13105805  0.40306739    -0.78600
C39         C  0.38321308  0.12927059  0.43438429     0.82200
N40         N  0.36325636  0.10514437  0.45062211    -0.78500
C41         C  0.33932520  0.08333173  0.43557556     0.82300
N42         N  0.33588440  0.08542933  0.40429005    -0.80200
C43         C  0.35716829  0.11013534  0.15116968     0.79700
N44         N  0.33565266  0.08590939  0.13623774    -0.78600
C45         C  0.33823051  0.08104434  0.10534248     0.82200
N46         N  0.36267102  0.10058025  0.08912192    -0.78500
C47         C  0.38414246  0.12512668  0.10372815     0.82300
N48         N  0.38126908  0.12971497  0.13461318    -0.80200
C49         C  0.35732651  0.25015133  0.15016625     0.79700
N50         N  0.38064905  0.25128568  0.13496592    -0.78600
C51         C  0.38394981  0.25623335  0.10358596     0.82200
N52         N  0.36370187  0.25992863  0.08726360    -0.78500
C53         C  0.33988409  0.25803923  0.10230958     0.82300
N54         N  0.33686507  0.25330551  0.13374787    -0.80200
C55         C  0.35909432  0.25259979  0.38676296     0.79700
N56         N  0.38260195  0.25609511  0.40375829    -0.78600
C57         C  0.38442918  0.26150145  0.43510700     0.82200
N58         N  0.36260579  0.26380275  0.44980712    -0.78500
C59         C  0.33875043  0.25990014  0.43316196     0.82300
N60         N  0.33707113  0.25418272  0.40194315    -0.80200
C61         C  0.22141333  0.11261995  0.38692057     0.79700
N62         N  0.21824505  0.08835084  0.40196115    -0.78600
C63         C  0.21087363  0.08388307  0.43285960     0.82200
N64         N  0.20666388  0.10391267  0.44899130    -0.78500
C65         C  0.21030502  0.12854598  0.43431972     0.82300
N66         N  0.21752527  0.13271849  0.40336096    -0.80200
C67         C  0.21595414  0.10683365  0.15063618     0.79700
N68         N  0.21441383  0.12881699  0.13538134    -0.78600
C69         C  0.20876504  0.12682227  0.10404408     0.82200
N70         N  0.20493493  0.10287205  0.08771566    -0.78500
C71         C  0.20755562  0.08140564  0.10256037     0.82300
N72         N  0.21326290  0.08356489  0.13381626    -0.80200
C73         C  0.24578508  0.32627514  0.08576801     0.42000
N74         N  0.24118596  0.28431753  0.07428682     0.00800
C75         C  0.28327425  0.24401283  0.43840657    -0.07000
H76         H  0.21261856  0.28544223  0.42046263     0.06300
C77         C  0.13497980  0.20167067  0.48091003    -0.07400
Co78       Co  0.27342653  0.28492329  0.01579504     0.74200
N79         N  0.23573513  0.28170413  0.46045428    -0.26600
Co80       Co  0.22427299  0.23760952  0.46118065     0.74100
C81         C  0.13674816  0.21648703  0.45123410     0.42100
N82         N  0.16568633  0.20910435  0.05652206     0.00500
N83         N  0.17976535  0.22428506  0.46332799     0.00600
N84         N  0.31528606  0.27544305  0.47472805    -0.47400
H85         H  0.27400895  0.34790034  0.04171150     0.06300
N86         N  0.25423434  0.30102605  0.48104027     0.00900
N87         N  0.21282205  0.19352253  0.46324010     0.00600
C88         C  0.20778973  0.15141424  0.45180452     0.42200
N89         N  0.18498747  0.22741950  0.07722613    -0.26000
C90         C  0.31834049  0.27465062  0.05550584    -0.06900
N91         N  0.23393803  0.29816201  0.09543216    -0.47100
N92         N  0.21982497  0.17953624  0.44207957    -0.47300
C93         C  0.31644969  0.25938392  0.08482952     0.42000
N94         N  0.28784604  0.26950751  0.48021699     0.00800
N95         N  0.21714148  0.19604920  0.07670598    -0.26000
N96         N  0.25756546  0.30163201  0.05129473    -0.26500
N97         N  0.19857014  0.17682615  0.05611159     0.00500
H98         H  0.23885048  0.19197608  0.11777303     0.06400
H99         H  0.17942942  0.12985334  0.49577391     0.06400
N100        N  0.26881092  0.25096489  0.45950182    -0.26600
N101        N  0.16279638  0.20752094  0.48629994    -0.26200
N102        N  0.27371980  0.25285258  0.07360661     0.00800
C103        C  0.24242792  0.32603879  0.45066246     0.42200
C104        C  0.17105682  0.23496483  0.09829901    -0.07400
N105        N  0.19641507  0.17622649  0.48625855    -0.26200
H106        H  0.11588981  0.18789272  0.49519922     0.06400
N107        N  0.25884773  0.32807984  0.47606417    -0.47400
H108        H  0.18116830  0.24940383  0.11821970     0.06400
C109        C  0.20866591  0.15140319  0.08782650     0.42100
C110        C  0.26137811  0.32876730  0.05632070    -0.06900
Co111      Co  0.22931544  0.24016694  0.07584996     0.73800
N112        N  0.13846642  0.20392061  0.06212599    -0.47100
C113        C  0.31385566  0.26001628  0.44870169     0.42300
N114        N  0.28825187  0.24653340  0.09467579    -0.47100
Co115      Co  0.17973540  0.19075292  0.02120742     0.73900
C116        C  0.19230583  0.14899676  0.48124104    -0.07400
C117        C  0.22732319  0.29552287  0.44018384    -0.07000
N118        N  0.29073760  0.26960806  0.05065470    -0.26500
N119        N  0.16506408  0.22987599  0.44179547    -0.47300
H120        H  0.27353923  0.22959899  0.41838564     0.06400
C121        C  0.22454171  0.18200187  0.09775239    -0.07400
Cl122      Cl  0.22659553  0.23783329  0.01849071    -0.50400
C123        C  0.14048904  0.21965897  0.08819201     0.42100
H124        H  0.33738389  0.28809953  0.04101849     0.06300
N125        N  0.19295743  0.14954489  0.06183515    -0.47100
C126        C  0.04582240  0.32848020  0.45150140     0.42000
N127        N  0.50900437  0.28747261  0.46351617     0.00800
C128        C  0.42344576  0.24032081  0.09790696    -0.07000
H129        H  0.03568187  0.28379143  0.11730206     0.06300
C130        C  0.03169968  0.20122409  0.05621579    -0.07400
Co131      Co  0.47638030  0.28378404  0.02093956     0.74200
N132        N  0.50836012  0.27963827  0.07672760    -0.26600
Co133      Co  0.47699451  0.23522896  0.07590863     0.74100
C134        C  0.04509760  0.21697520  0.08561947     0.42100
N135        N  0.50922756  0.21227260  0.48151352     0.00500
N136        N  0.50946739  0.22350359  0.07428280     0.00600
N137        N  0.42229042  0.27111769  0.06138084    -0.47400
H138        H  0.03810657  0.34947290  0.49540739     0.06300
N139        N  0.50881899  0.29847003  0.05586879     0.00900
N140        N  0.44542654  0.19070528  0.07420459     0.00600
C141        C  0.40943361  0.14803846  0.08617096     0.42200
N142        N  0.50853344  0.23058596  0.46072706    -0.26000
C143        C  0.42250913  0.27812397  0.48228334    -0.06900
N144        N  0.03040868  0.30029649  0.44147196    -0.47100
N145        N  0.42472077  0.17642253  0.09549153    -0.47300
C146        C  0.40904884  0.26274742  0.45289072     0.42000
N147        N  0.44392930  0.26538174  0.05586664     0.00800
N148        N  0.44461707  0.19903509  0.46091769    -0.26000
N149        N  0.50993111  0.30485012  0.48652294    -0.26500
N150        N  0.44398834  0.18000567  0.48159268     0.00500
H151        H  0.41825808  0.19446490  0.42012957     0.06400
H152        H  0.41716383  0.12657945  0.04254784     0.06400
N153        N  0.44478929  0.24725143  0.07676607    -0.26600
N154        N  0.51025060  0.20676203  0.05150746    -0.26200
N155        N  0.44508981  0.25602031  0.46428871     0.00800
C156        C  0.04681978  0.32422211  0.08698001     0.42200
C157        C  0.02992359  0.23517161  0.43823969    -0.07400
N158        N  0.44514493  0.17340686  0.05144646    -0.26200
H159        H  0.03763995  0.18791864  0.04185081     0.06400
N160        N  0.03295678  0.32622378  0.06115303    -0.47400
H161        H  0.03447051  0.24932984  0.41810972     0.06400
C162        C  0.40791980  0.15420622  0.45044665     0.42100
C163        C  0.03247902  0.33042383  0.48082974    -0.06900
Co164      Co  0.47678340  0.24327132  0.46190803     0.73800
N165        N  0.03029364  0.20366223  0.47438456    -0.47100
C166        C  0.40854135  0.25591513  0.08753527     0.42300
N167        N  0.42425891  0.24971459  0.44315592    -0.47100
Co168      Co  0.47768731  0.19062844  0.01627302     0.73900
C169        C  0.42275213  0.14581152  0.05679716    -0.07400
C170        C  0.03147855  0.29376861  0.09723628    -0.07000
N171        N  0.44497098  0.27295911  0.48725529    -0.26500
N172        N  0.02954232  0.22974584  0.09488593    -0.47300
H173        H  0.41925956  0.22647688  0.11823202     0.06400
C174        C  0.42282291  0.18472231  0.44013208    -0.07400
Cl175      Cl  0.47703843  0.23721906  0.01857921    -0.50400
C176        C  0.04421326  0.21890346  0.44829769     0.42100
H177        H  0.41706700  0.29178420  0.49670092     0.06300
N178        N  0.42210985  0.15269276  0.47624886    -0.47100
C179        C  0.24648389  0.42194103  0.45272428     0.42000
N180        N  0.24124018  0.45880723  0.46446491     0.00800
C181        C  0.28274288  0.04124867  0.09916411    -0.07000
H182        H  0.21125836  0.42893202  0.11730661     0.06300
C183        C  0.13457037  0.43386115  0.05755196    -0.07400
Co184      Co  0.27238358  0.48768571  0.02242381     0.74200
N185        N  0.23499003  0.45617609  0.07782706    -0.26600
Co186      Co  0.22354254  0.48882475  0.07709950     0.74100
C187        C  0.13694425  0.42102063  0.08712032     0.42100
N188        N  0.16535522  0.45772484  0.48216551     0.00500
N189        N  0.17922726  0.45742162  0.07539388     0.00600
N190        N  0.31512395  0.04173208  0.06349408    -0.47400
H191        H  0.27522621  0.42894139  0.49651995     0.06300
N192        N  0.25310193  0.45499651  0.05703335     0.00900
N193        N  0.21201299  0.02038360  0.07355965     0.00600
C194        C  0.20591829  0.05666368  0.08498330     0.42200
N195        N  0.18460317  0.45866637  0.46146803    -0.26000
C196        C  0.31818014  0.04508418  0.48231296    -0.06900
N197        N  0.23418752  0.43784417  0.44324712    -0.47100
N198        N  0.21836560  0.04104437  0.09489236    -0.47300
C199        C  0.31617182  0.05820525  0.45285116     0.42000
N200        N  0.28770007  0.02023191  0.05760896     0.00800
N201        N  0.21691707  0.02148345  0.45992227    -0.26000
N202        N  0.25793495  0.45814878  0.48729482    -0.26500
N203        N  0.19840318  0.02242742  0.48034594     0.00500
H204        H  0.23937053  0.04736844  0.41922019     0.06400
H205        H  0.17767587  0.04962322  0.04082042     0.06400
N206        N  0.26846602  0.01978764  0.07800673    -0.26600
N207        N  0.16196899  0.45662366  0.05237506    -0.26200
N208        N  0.27364464  0.02162904  0.46386014     0.00800
C209        C  0.24015610  0.41743188  0.08653469     0.42200
C210        C  0.17056824  0.43718957  0.44035154    -0.07400
N211        N  0.19560472  0.02105630  0.05039128    -0.26200
H212        H  0.11537348  0.42766634  0.04302364     0.06400
N213        N  0.25686637  0.43194416  0.06140393    -0.47400
H214        H  0.18054942  0.43292467  0.42029484     0.06400
C215        C  0.20934000  0.05828161  0.44873199     0.42100
C216        C  0.26222192  0.43515073  0.48208472    -0.06900
Co217      Co  0.22883575  0.49059765  0.46291317     0.73800
N218        N  0.13810119  0.43578716  0.47654087    -0.47100
C219        C  0.31349650  0.05578685  0.08946062     0.42300
N220        N  0.28804805  0.04245600  0.44278704    -0.47100
Co221      Co  0.17906119  0.48893065  0.01710302     0.73900
C222        C  0.19085409  0.04373266  0.05537329    -0.07400
C223        C  0.22603041  0.43358533  0.09767248    -0.07000
N224        N  0.29069854  0.02231930  0.48705341    -0.26500
N225        N  0.16515171  0.43676692  0.09670652    -0.47300
H226        H  0.27279548  0.04589438  0.11899697     0.06400
C227        C  0.22474863  0.04303188  0.43892641    -0.07400
Cl228      Cl  0.22585041  0.48856557  0.01977826    -0.50400
C229        C  0.14000863  0.42200211  0.45051502     0.42100
H230        H  0.33720363  0.05105468  0.49704644     0.06300
N231        N  0.19335941  0.04450202  0.47460287    -0.47100
C232        C  0.21131642  0.08622302  0.23733807    -0.11900
C233        C  0.22880550  0.11399078  0.25119237     0.14700
C234        C  0.24358663  0.13896702  0.23173316     0.01600
C235        C  0.23882214  0.13607384  0.19924540    -0.16200
C236        C  0.22051961  0.10838240  0.18524493    -0.11000
C237        C  0.20702202  0.08307204  0.20480078     0.08300
C238        C  0.22913694  0.11638271  0.28598118     0.05700
S239        S  0.26893175  0.17495372  0.24720064    -0.25400
H240        H  0.24996397  0.15560872  0.18471427     0.19600
S241        S  0.18267099  0.04629456  0.19028607    -0.31100
H242        H  0.19999638  0.06691256  0.25215705     0.09900
C243        C  0.21186172  0.12626379  0.30159167     0.03100
C244        C  0.21087408  0.12605410  0.33451769    -0.13400
C245        C  0.22663292  0.11595780  0.35242351    -0.09000
C246        C  0.24501967  0.10734558  0.33661701     0.06500
C247        C  0.24565314  0.10718003  0.30370926    -0.14100
S248        S  0.18993139  0.13786080  0.27954544    -0.31100
H249        H  0.19684351  0.13276224  0.34635802     0.10800
S250        S  0.26896057  0.09729192  0.35689721    -0.28200
H251        H  0.25928121  0.09998611  0.29178376     0.08000
H252        H  0.16710283  0.05490035  0.17005177     0.26500
H253        H  0.17508091  0.14133039  0.30526763     0.21300
H254        H  0.27490813  0.11674553  0.38224052     0.26600
H255        H  0.28016627  0.16464569  0.27091296     0.15400
C256        C  0.37739397  0.24458864  0.30123730    -0.11900
C257        C  0.35486903  0.24626857  0.28530818     0.14700
C258        C  0.33287537  0.24809662  0.30269692     0.01600
C259        C  0.33462338  0.24937766  0.33545018    -0.16200
C260        C  0.35758054  0.24840357  0.35185325    -0.11000
C261        C  0.37874123  0.24500971  0.33406641     0.08300
C262        C  0.35573652  0.24734352  0.25062402     0.09300
S263        S  0.30241782  0.24991038  0.28491080    -0.25400
H264        H  0.31790056  0.25163305  0.34810325     0.19600
S265        S  0.40786206  0.24064720  0.35110675    -0.31100
H266        H  0.39418321  0.24299919  0.28788258     0.09900
C267        C  0.36575661  0.27418730  0.23456789     0.03100
C268        C  0.36565234  0.27428287  0.20170798    -0.13400
C269        C  0.35560743  0.24805902  0.18457982    -0.09000
C270        C  0.34541483  0.22111833  0.20066475     0.06500
C271        C  0.34606974  0.22112872  0.23352184    -0.14100
S272        S  0.37877946  0.30834131  0.25594821    -0.31100
H273        H  0.37350843  0.29485994  0.18922011     0.10800
S274        S  0.33090933  0.18607884  0.18078441    -0.28200
H275        H  0.33829252  0.20049430  0.24587904     0.08000
H276        H  0.38852352  0.21765648  0.37106872     0.26500
H277        H  0.38949039  0.32719845  0.22986256     0.21300
H278        H  0.32051205  0.19380202  0.15412360     0.26600
H279        H  0.30442708  0.24070724  0.25456974     0.15400
C280        C  0.34047056  0.08833402  0.30074341    -0.11900
C281        C  0.35292304  0.11625571  0.28681258     0.14700
C282        C  0.36477324  0.14153443  0.30624270     0.01600
C283        C  0.36532088  0.13841130  0.33883247    -0.16200
C284        C  0.35355065  0.11045829  0.35293304    -0.11000
C285        C  0.34072127  0.08503458  0.33339398     0.08300
C286        C  0.35455633  0.11788616  0.25196008     0.09300
S287        S  0.37959569  0.17833596  0.29091993    -0.25400
H288        H  0.37491879  0.15809542  0.35333551     0.19600
S289        S  0.32638381  0.04826853  0.34906859    -0.31100
H290        H  0.33132492  0.06904044  0.28571653     0.09900
C291        C  0.38166167  0.12881205  0.23595021     0.03100
C292        C  0.38182495  0.12707269  0.20309156    -0.13400
C293        C  0.35545153  0.11443554  0.18556827    -0.09000
C294        C  0.32841552  0.10479294  0.20171901     0.06500
C295        C  0.32827356  0.10622986  0.23456733    -0.14100
S296        S  0.41599503  0.14296434  0.25728506    -0.31100
H297        H  0.40260243  0.13436304  0.19111595     0.10800
S298        S  0.29341989  0.09118471  0.18204290    -0.28200
H299        H  0.30743092  0.09815542  0.24675171     0.08000
H300        H  0.32118523  0.03327147  0.32029551     0.26500
H301        H  0.43478565  0.15600905  0.23143187     0.21300
H302        H  0.30513811  0.11069425  0.15656000     0.26600
H303        H  0.36203091  0.17012401  0.26375374     0.15400
C304        C  0.08169786  0.21164214  0.29869360    -0.11900
C305        C  0.10139518  0.23931492  0.28582761     0.14700
C306        C  0.11954171  0.26293903  0.30621693     0.01600
C307        C  0.11804892  0.25807306  0.33872719    -0.16200
C308        C  0.09851182  0.23027515  0.35143552    -0.11000
C309        C  0.08016589  0.20686864  0.33110081     0.08300
C310        C  0.10364606  0.24173337  0.25107738     0.09300
S311        S  0.14503130  0.29975363  0.29268863    -0.25400
H312        H  0.13189137  0.27622521  0.35426939     0.19600
S313        S  0.05462280  0.17026431  0.34510826    -0.31100
H314        H  0.06784992  0.19340213  0.28325679     0.09900
C315        C  0.12329866  0.23563183  0.23457349     0.03100
C316        C  0.12231933  0.23441406  0.20164900    -0.13400
C317        C  0.10246229  0.23988124  0.18444178    -0.09000
C318        C  0.08506802  0.24915004  0.20129906     0.06500
C319        C  0.08494831  0.24874881  0.23423679    -0.14100
S320        S  0.14869388  0.22793984  0.25556388    -0.31100
H321        H  0.13640724  0.22801713  0.18945593     0.10800
S322        S  0.06389912  0.26338508  0.18256130    -0.28200
H323        H  0.07041234  0.25429766  0.24685616     0.08000
H324        H  0.07202537  0.17090520  0.37055731     0.26500
H325        H  0.16593678  0.22962784  0.22946984     0.21300
H326        H  0.08530722  0.27885641  0.15937378     0.26600
H327        H  0.13471045  0.29693653  0.26183669     0.15400
C328        C  0.12542143  0.37432810  0.23500852    -0.11900
C329        C  0.09866861  0.36263808  0.25154181     0.14700
C330        C  0.07197562  0.35196108  0.23467270     0.01600
C331        C  0.07259623  0.35257485  0.20190658    -0.16200
C332        C  0.09936251  0.36490631  0.18520287    -0.11000
C333        C  0.12610381  0.37558207  0.20215093     0.08300
C334        C  0.09956381  0.36411684  0.28626614     0.09300
S335        S  0.03646763  0.33862698  0.25326257    -0.25400
H336        H  0.05194570  0.34464780  0.18936857     0.19600
S337        S  0.16171171  0.39061062  0.18351817    -0.31100
H338        H  0.14597235  0.38272043  0.24786780     0.09900
C339        C  0.08844847  0.33870769  0.30518096     0.03100
C340        C  0.08768634  0.34150129  0.33791672    -0.13400
C341        C  0.09793511  0.36924404  0.35217529    -0.09000
C342        C  0.10936344  0.39465105  0.33289621     0.06500
C343        C  0.11043419  0.39179534  0.30042752    -0.14100
S344        S  0.07532541  0.30283312  0.28764797    -0.31100
H345        H  0.07914672  0.32202465  0.35247816     0.10800
S346        S  0.12104620  0.43119372  0.34766640    -0.28200
H347        H  0.11868253  0.41128283  0.28586336     0.08000
H348        H  0.15141899  0.37117639  0.15776024     0.26500
H349        H  0.06935245  0.28691352  0.31579946     0.21300
H350        H  0.09721158  0.42184240  0.36860082     0.26600
H351        H  0.04679167  0.35532699  0.28094185     0.15400
C352        C  0.23629484  0.39018216  0.23629412    -0.11900
C353        C  0.22769068  0.36366860  0.25196732     0.14700
C354        C  0.22019590  0.33800238  0.23410557     0.01600
C355        C  0.22172397  0.33966336  0.20121622    -0.16200
C356        C  0.23102367  0.36643542  0.18529576    -0.11000
C357        C  0.23874436  0.39218911  0.20351673     0.08300
C358        C  0.22888242  0.36451353  0.28687270     0.09300
S359        S  0.20922400  0.30251759  0.25137859    -0.25400
H360        H  0.21584241  0.31977249  0.18795271     0.19600
S361        S  0.25378870  0.42851271  0.18634925    -0.31100
H362        H  0.24218384  0.40978044  0.25009272     0.09900
C363        C  0.25145564  0.36292165  0.30328131     0.03100
C364        C  0.25213072  0.36427267  0.33615197    -0.13400
C365        C  0.23126351  0.36807919  0.35321510    -0.09000
C366        C  0.20899768  0.37036542  0.33672243     0.06500
C367        C  0.20824261  0.36881874  0.30380257    -0.14100
S368        S  0.28014216  0.36034192  0.28232675    -0.31100
H369        H  0.26943989  0.36297590  0.34872259     0.10800
S370        S  0.18048794  0.37441075  0.35604268    -0.28200
H371        H  0.19116305  0.37057856  0.29125107     0.08000
H372        H  0.26525476  0.44497455  0.21407555     0.26500
H373        H  0.29624212  0.36040147  0.30876303     0.21300
H374        H  0.17991434  0.35968926  0.38375731     0.26600
H375        H  0.20468955  0.30871062  0.28219236     0.15400
C376        C  0.23647420  0.37006504  0.65052305     0.79700
N377        N  0.24046522  0.34973873  0.63456387    -0.78600
C378        C  0.24655327  0.35288063  0.60326643     0.82200
N379        N  0.24874712  0.37655944  0.58770334    -0.78500
C380        C  0.24387501  0.39637845  0.60331362     0.82300
N381        N  0.23750725  0.39274969  0.63431257    -0.80200
C382        C  0.23368517  0.36698118  0.88763703     0.79700
N383        N  0.23626170  0.39056795  0.90390129    -0.78600
C384        C  0.24271478  0.39351817  0.93514819     0.82200
N385        N  0.24641021  0.37265654  0.95016447    -0.78500
C386        C  0.24311891  0.34871975  0.93409875     0.82300
N387        N  0.23696071  0.34614863  0.90298063    -0.80200
C388        C  0.09510802  0.37104659  0.88608431     0.79700
N389        N  0.11662700  0.39427309  0.90212285    -0.78600
C390        C  0.11475636  0.39647599  0.93363236     0.82200
N391        N  0.09135247  0.37507146  0.94945216    -0.78500
C392        C  0.07027061  0.35109812  0.93380328     0.82300
N393        N  0.07224240  0.34905137  0.90216459    -0.80200
C394        C  0.09839217  0.36709035  0.64966607     0.79700
N395        N  0.07540440  0.34558512  0.63336287    -0.78600
C396        C  0.07183618  0.34884538  0.60241744     0.82200
N397        N  0.09143462  0.37390724  0.58736806    -0.78500
C398        C  0.11492536  0.39537006  0.60327003     0.82300
N399        N  0.11828275  0.39195404  0.63437395    -0.80200
C400        C  0.09844308  0.23399489  0.64951103     0.79700
N401        N  0.07369599  0.22846767  0.63346462    -0.78600
C402        C  0.07037484  0.22062103  0.60260034     0.82200
N403        N  0.09180651  0.21782318  0.58762488    -0.78500
C404        C  0.11673311  0.22359012  0.60335217     0.82300
N405        N  0.11992409  0.23173846  0.63399630    -0.80200
C406        C  0.09488122  0.22400905  0.88550653     0.79700
N407        N  0.07106469  0.22159920  0.90085269    -0.78600
C408        C  0.06796418  0.21661400  0.93220650     0.82200
N409        N  0.08880569  0.21386171  0.94844510    -0.78500
C410        C  0.11313950  0.21693812  0.93342688     0.82300
N411        N  0.11625006  0.22227192  0.90197506    -0.80200
C412        C  0.35674618  0.10575892  0.88731336     0.79700
N413        N  0.38066697  0.12749959  0.90240105    -0.78600
C414        C  0.38463043  0.12562375  0.93363704     0.82200
N415        N  0.36443856  0.10193117  0.95016491    -0.78500
C416        C  0.33994392  0.08061329  0.93551519     0.82300
N417        N  0.33611145  0.08276854  0.90431846    -0.80200
C418        C  0.35730586  0.11154060  0.65066731     0.79700
N419        N  0.33593003  0.08750255  0.63546723    -0.78600
C420        C  0.33785608  0.08389248  0.60419173     0.82200
N421        N  0.36144609  0.10459040  0.58780267    -0.78500
C422        C  0.38270344  0.12907384  0.60272923     0.82300
N423        N  0.38060275  0.13237874  0.63410426    -0.80200
C424        C  0.35498324  0.24896620  0.64979876     0.79700
N425        N  0.37959363  0.25215897  0.63548959    -0.78600
C426        C  0.38473897  0.25976086  0.60470953     0.82200
N427        N  0.36495729  0.26386166  0.58797007    -0.78500
C428        C  0.33993193  0.25997553  0.60204571     0.82300
N429        N  0.33518589  0.25278043  0.63291447    -0.80200
C430        C  0.35705986  0.24659714  0.88649949     0.79700
N431        N  0.38029925  0.24920275  0.90329674    -0.78600
C432        C  0.38260137  0.25484823  0.93458963     0.82200
N433        N  0.36133784  0.25796243  0.94956790    -0.78500
C434        C  0.33752202  0.25464719  0.93326501     0.82300
N435        N  0.33548903  0.24887244  0.90196142    -0.80200
C436        C  0.22201603  0.11156789  0.88671085     0.79700
N437        N  0.21900314  0.08732411  0.90171910    -0.78600
C438        C  0.21137777  0.08260206  0.93255533     0.82200
N439        N  0.20648300  0.10220553  0.94862031    -0.78500
C440        C  0.20977003  0.12669126  0.93397355     0.82300
N441        N  0.21749005  0.13123274  0.90317922    -0.80200
C442        C  0.21751077  0.10932892  0.65069555     0.79700
N443        N  0.21570666  0.13127616  0.63580698    -0.78600
C444        C  0.20932430  0.12910947  0.60465505     0.82200
N445        N  0.20490591  0.10491131  0.58827859    -0.78500
C446        C  0.20748271  0.08328527  0.60294010     0.82300
N447        N  0.21366509  0.08551741  0.63411326    -0.80200
C448        C  0.24894523  0.32975215  0.58620777     0.42000
N449        N  0.24224242  0.28711141  0.57412540     0.00800
C450        C  0.28243293  0.24028121  0.93896864    -0.07000
H451        H  0.21415385  0.28390887  0.91969690     0.06300
C452        C  0.13476115  0.20076134  0.98073661    -0.07400
Co453      Co  0.27368170  0.28744668  0.51549722     0.74200
N454        N  0.23631026  0.27977596  0.96030010    -0.26600
Co455      Co  0.22400715  0.23552929  0.96114785     0.74100
C456        C  0.13673229  0.21591922  0.95121842     0.42100
N457        N  0.16637634  0.21150477  0.55654831     0.00500
N458        N  0.17955761  0.22293717  0.96319822     0.00600
N459        N  0.31484834  0.27144871  0.97512470    -0.47400
H460        H  0.27691063  0.35087049  0.54194066     0.06300
N461        N  0.25474288  0.29895145  0.98101248     0.00900
N462        N  0.21185779  0.19133278  0.96292903     0.00600
C463        C  0.20668717  0.14923632  0.95132639     0.42200
N464        N  0.18564406  0.23016751  0.57707589    -0.26000
C465        C  0.31888041  0.27707238  0.55495850    -0.06900
N466        N  0.23623312  0.30150809  0.59576319    -0.47100
N467        N  0.21886045  0.17738785  0.94175281    -0.47300
C468        C  0.31684459  0.26151177  0.58415272     0.42000
N469        N  0.28763318  0.26643182  0.98050419     0.00800
N470        N  0.21763138  0.19848943  0.57721436    -0.26000
N471        N  0.25857693  0.30425945  0.55104869    -0.26500
N472        N  0.19921129  0.17919048  0.55659697     0.00500
H473        H  0.23889077  0.19440426  0.61869360     0.06400
H474        H  0.17820014  0.12756381  0.99520306     0.06400
N475        N  0.26839589  0.24803019  0.95980548    -0.26600
N476        N  0.16242023  0.20609891  0.98607238    -0.26200
N477        N  0.27423826  0.25526047  0.57303049     0.00800
C478        C  0.24404784  0.32437831  0.94999678     0.42200
C479        C  0.17165903  0.23808670  0.59771280    -0.07400
N480        N  0.19534660  0.17400077  0.98583875    -0.26200
H481        H  0.11558297  0.18707662  0.99496072     0.06400
N482        N  0.25994266  0.32618781  0.97578794    -0.47400
H483        H  0.18171872  0.25285795  0.61740502     0.06400
C484        C  0.20888713  0.15370940  0.58871707     0.42100
C485        C  0.26370001  0.33178120  0.55641467    -0.06900
Co486      Co  0.22996703  0.24277454  0.57577563     0.73800
N487        N  0.13914793  0.20638130  0.56188318    -0.47100
C488        C  0.31302017  0.25556664  0.94921322     0.42300
N489        N  0.28865711  0.24868168  0.59391221    -0.47100
Co490      Co  0.18047188  0.19287375  0.52151584     0.73900
C491        C  0.19110110  0.14672937  0.98071006    -0.07400
C492        C  0.22863266  0.29385491  0.93961197    -0.07000
N493        N  0.29128989  0.27214005  0.55013736    -0.26500
N494        N  0.16506856  0.22900623  0.94178547    -0.47300
H495        H  0.27240012  0.22573526  0.91910191     0.06400
C496        C  0.22472668  0.18439806  0.59856956    -0.07400
Cl497      Cl  0.22707380  0.24015085  0.51849347    -0.50400
C498        C  0.14108560  0.22256269  0.58751978     0.42100
H499        H  0.33796616  0.29055767  0.54052519     0.06300
N500        N  0.19345223  0.15189352  0.56252810    -0.47100
C501        C  0.04579657  0.32722599  0.95111232     0.42000
N502        N  0.50872211  0.28382130  0.96299647     0.00800
C503        C  0.42528351  0.24545075  0.59950804    -0.07000
H504        H  0.03627509  0.28407131  0.61568017     0.06300
C505        C  0.03152290  0.20198152  0.55576499    -0.07400
Co506      Co  0.47789232  0.28840746  0.52208028     0.74200
N507        N  0.51005308  0.28303889  0.57735860    -0.26600
Co508      Co  0.47750843  0.23893691  0.57661538     0.74100
C509        C  0.04458774  0.21736499  0.58535087     0.42100
N510        N  0.51022559  0.20919196  0.98131622     0.00500
N511        N  0.50886651  0.22580618  0.57462797     0.00600
N512        N  0.42421988  0.27652908  0.56328768    -0.47400
H513        H  0.03856789  0.34841489  0.99513732     0.06300
N514        N  0.51091034  0.30221508  0.55668139     0.00900
N515        N  0.44474919  0.19474271  0.57446908     0.00600
C516        C  0.40752989  0.15250521  0.58522316     0.42200
N517        N  0.50932916  0.22736521  0.96047513    -0.26000
C518        C  0.42096172  0.27211698  0.98117663    -0.06900
N519        N  0.03030047  0.29899584  0.94122338    -0.47100
N520        N  0.42353140  0.18062087  0.59533486    -0.47300
C521        C  0.40763587  0.25652764  0.95193656     0.42000
N522        N  0.44575417  0.27066947  0.55752102     0.00800
N523        N  0.44577709  0.19504920  0.96026322    -0.26000
N524        N  0.50884913  0.30089227  0.98591005    -0.26500
N525        N  0.44516048  0.17612392  0.98110827     0.00500
H526        H  0.41991229  0.19037510  0.91907132     0.06400
H527        H  0.41483001  0.13115446  0.54133765     0.06400
N528        N  0.44642757  0.25228063  0.57819251    -0.26600
N529        N  0.50913211  0.20901632  0.55163352    -0.26200
N530        N  0.44459784  0.25114558  0.96299013     0.00800
C531        C  0.04720438  0.32463182  0.58575677     0.42200
C532        C  0.02926816  0.23334915  0.93836697    -0.07400
N533        N  0.44406218  0.17748905  0.55143678    -0.26200
H534        H  0.03741007  0.18863574  0.54140278     0.06400
N535        N  0.03288240  0.32688622  0.56044749    -0.47400
H536        H  0.03380740  0.24747947  0.91821947     0.06400
C537        C  0.40970303  0.15023304  0.94941830     0.42100
C538        C  0.03290765  0.32926402  0.98070945    -0.06900
Co539      Co  0.47712395  0.23937237  0.96120837     0.73800
N540        N  0.02964713  0.20190450  0.97459467    -0.47100
C541        C  0.41058214  0.26129559  0.58951638     0.42300
N542        N  0.42350720  0.24422374  0.94195950    -0.47100
Co543      Co  0.47663404  0.19400482  0.51646407     0.73900
C544        C  0.42091175  0.15023857  0.55601790    -0.07400
C545        C  0.03170686  0.29421837  0.59605212    -0.07000
N546        N  0.44391924  0.26775298  0.98595950    -0.26500
N547        N  0.02910955  0.23020787  0.59464073    -0.47300
H548        H  0.42083934  0.23115849  0.61949718     0.06400
C549        C  0.42439538  0.18066740  0.93916575    -0.07400
Cl550      Cl  0.47719681  0.24117694  0.51926621    -0.50400
C551        C  0.04346543  0.21699475  0.94839007     0.42100
H552        H  0.41500019  0.28528392  0.99574691     0.06300
N553        N  0.42351919  0.14874008  0.97557658    -0.47100
C554        C  0.24504617  0.41893772  0.95255847     0.42000
N555        N  0.23994325  0.45599152  0.96412607     0.00800
C556        C  0.28266096  0.04364035  0.59856367    -0.07000
H557        H  0.21399160  0.43132562  0.61797124     0.06300
C558        C  0.13510803  0.43472624  0.55750205    -0.07400
Co559      Co  0.27346912  0.49059670  0.52277452     0.74200
N560        N  0.23660997  0.45845293  0.57804689    -0.26600
Co561      Co  0.22405140  0.49032513  0.57745500     0.74100
C562        C  0.13751253  0.42155418  0.58680946     0.42100
N563        N  0.16482551  0.45634539  0.98206531     0.00500
N564        N  0.17979338  0.45824684  0.57537925     0.00600
N565        N  0.31495151  0.04451831  0.56249892    -0.47400
H566        H  0.27365909  0.42593098  0.99642190     0.06300
N567        N  0.25504902  0.45788261  0.55725525     0.00900
N568        N  0.21174748  0.02209418  0.57372997     0.00600
C569        C  0.20553605  0.05835542  0.58526944     0.42200
N570        N  0.18394346  0.45711295  0.96130046    -0.26000
C571        C  0.31862075  0.04269018  0.98258098    -0.06900
N572        N  0.23291416  0.43499004  0.94290806    -0.47100
N573        N  0.21819509  0.04285719  0.59497539    -0.47300
C574        C  0.31671385  0.05593864  0.95312625     0.42000
N575        N  0.28762231  0.02266317  0.55701915     0.00800
N576        N  0.21783293  0.02045251  0.95986664    -0.26000
N577        N  0.25645292  0.45516897  0.98706802    -0.26500
N578        N  0.19922103  0.02134154  0.98016910     0.00500
H579        H  0.24035287  0.04631724  0.91915499     0.06400
H580        H  0.17689183  0.05095931  0.54132453     0.06400
N581        N  0.26843993  0.02199166  0.57762192    -0.26600
N582        N  0.16247568  0.45762183  0.55247652    -0.26200
N583        N  0.27405659  0.01980817  0.96426828     0.00800
C584        C  0.24392316  0.42111599  0.58729935     0.42200
C585        C  0.16976187  0.43578236  0.94011694    -0.07400
N586        N  0.19509664  0.02256505  0.55070414    -0.26200
H587        H  0.11590539  0.42863204  0.54303234     0.06400
N588        N  0.26009276  0.43567974  0.56191584    -0.47400
H589        H  0.17964131  0.43144206  0.92001663     0.06400
C590        C  0.21018369  0.05718893  0.94851991     0.42100
C591        C  0.26065877  0.43211723  0.98195481    -0.06900
Co592      Co  0.22826969  0.48847851  0.96247452     0.73800
N593        N  0.13746900  0.43466601  0.97636920    -0.47100
C594        C  0.31326779  0.05858940  0.58838714     0.42300
N595        N  0.28858095  0.04053793  0.94317756    -0.47100
Co596      Co  0.17927774  0.49021331  0.51734144     0.73900
C597        C  0.19023701  0.04519762  0.55576973    -0.07400
C598        C  0.22865530  0.43624134  0.59817298    -0.07000
N599        N  0.29100809  0.02015733  0.98740843    -0.26500
N600        N  0.16573585  0.43730690  0.59645363    -0.47300
H601        H  0.27276045  0.04822600  0.61848067     0.06400
C602        C  0.22573946  0.04202640  0.93886005    -0.07400
Cl603      Cl  0.22636194  0.49042019  0.52015349    -0.50400
C604        C  0.13924645  0.42092187  0.95024136     0.42100
H605        H  0.33764724  0.04839716  0.99720426     0.06300
N606        N  0.19412569  0.04335806  0.97432702    -0.47100
C607        C  0.20020984  0.09713944  0.73748011    -0.11900
C608        C  0.22830139  0.11436493  0.75094661     0.14700
C609        C  0.25322663  0.12847615  0.73104457     0.01600
C610        C  0.24921179  0.12645810  0.69837189    -0.16200
C611        C  0.22092417  0.11012422  0.68507594    -0.11000
C612        C  0.19624069  0.09479564  0.70495275     0.08300
C613        C  0.23026372  0.11706248  0.78573050     0.05700
S614        S  0.29055479  0.14916191  0.74569667    -0.25400
H615        H  0.26828585  0.13785383  0.68319166     0.19600
S616        S  0.15907762  0.07158348  0.69050836    -0.31100
H617        H  0.18107398  0.08565682  0.75256223     0.09900
C618        C  0.21767334  0.13154612  0.80208631     0.03100
C619        C  0.21638430  0.13042506  0.83497909    -0.13400
C620        C  0.22790582  0.11552682  0.85222657    -0.09000
C621        C  0.24291983  0.10335988  0.83567940     0.06500
C622        C  0.24325920  0.10360787  0.80276886    -0.14100
S623        S  0.20310591  0.15142339  0.78097573    -0.31100
H624        H  0.20545000  0.14043223  0.84721665     0.10800
S625        S  0.26308666  0.08823219  0.85491263    -0.28200
H626        H  0.25371153  0.09318811  0.79031607     0.08000
H627        H  0.16233267  0.08606112  0.66188314     0.26500
H628        H  0.19439335  0.16138623  0.80733761     0.21300
H629        H  0.27328894  0.10891694  0.87959389     0.26600
H630        H  0.28379676  0.15868470  0.77368948     0.15400
C631        C  0.37674867  0.24543677  0.79971486    -0.11900
C632        C  0.35037206  0.23948797  0.78498840     0.14700
C633        C  0.32561652  0.23318721  0.80369459     0.01600
C634        C  0.32844299  0.23508972  0.83641005    -0.16200
C635        C  0.35522379  0.24222580  0.85154618    -0.11000
C636        C  0.37941834  0.24644560  0.83246495     0.08300
C637        C  0.34989329  0.24112967  0.75021015     0.09300
S638        S  0.28981014  0.22283584  0.78741433    -0.25400
H639        H  0.30929558  0.23094070  0.85012319     0.19600
S640        S  0.41470033  0.25406636  0.84765830    -0.31100
H641        H  0.39567369  0.24974604  0.78545400     0.09900
C642        C  0.34761031  0.26379540  0.73492262     0.03100
C643        C  0.34795324  0.26488577  0.70206105    -0.13400
C644        C  0.35110435  0.24415684  0.68402207    -0.09000
C645        C  0.35277477  0.22110434  0.69931683     0.06500
C646        C  0.35255832  0.22010528  0.73216260    -0.14100
S647        S  0.34632785  0.29258298  0.75712168    -0.31100
H648        H  0.34710084  0.28277734  0.69033118     0.10800
S649        S  0.35437216  0.19194980  0.67834055    -0.28200
H650        H  0.35415939  0.20261464  0.74379852     0.08000
H651        H  0.40239723  0.22734865  0.86438445     0.26500
H652        H  0.33929849  0.30514517  0.73180717     0.21300
H653        H  0.33799647  0.19212685  0.65227289     0.26600
H654        H  0.29337466  0.21138642  0.75897652     0.15400
C655        C  0.33912865  0.08441039  0.80074293    -0.11900
C656        C  0.35315764  0.11217353  0.78638987     0.14700
C657        C  0.36677632  0.13775760  0.80535078     0.01600
C658        C  0.36713977  0.13497778  0.83800367    -0.16200
C659        C  0.35378592  0.10712672  0.85259654    -0.11000
C660        C  0.33952282  0.08147950  0.83344125     0.08300
C661        C  0.35476488  0.11348760  0.75159130     0.09300
S662        S  0.38439482  0.17454383  0.78927191    -0.25400
H663        H  0.37803557  0.15486356  0.85213974     0.19600
S664        S  0.32352942  0.04472133  0.84958484    -0.31100
H665        H  0.32864736  0.06488825  0.78605158     0.09900
C666        C  0.38135553  0.12143823  0.73562130     0.03100
C667        C  0.38185421  0.12201233  0.70270069    -0.13400
C668        C  0.35611215  0.11400017  0.68524893    -0.09000
C669        C  0.32951895  0.10616150  0.70139597     0.06500
C670        C  0.32908996  0.10575102  0.73425373    -0.14100
S671        S  0.41419331  0.12895003  0.75711890    -0.31100
H672        H  0.40209759  0.12744909  0.69045442     0.10800
S673        S  0.29557089  0.09702072  0.68147732    -0.28200
H674        H  0.30860418  0.09952763  0.74645721     0.08000
H675        H  0.32153582  0.02997769  0.82128160     0.26500
H676        H  0.43320981  0.13676271  0.73114206     0.21300
H677        H  0.30923925  0.11744414  0.65705060     0.26600
H678        H  0.36687716  0.16709761  0.76213424     0.15400
C679        C  0.07817166  0.21091058  0.79828616    -0.11900
C680        C  0.09990940  0.23777412  0.78553446     0.14700
C681        C  0.12002452  0.26019883  0.80598372     0.01600
C682        C  0.11848463  0.25485313  0.83838255    -0.16200
C683        C  0.09691083  0.22784384  0.85104765    -0.11000
C684        C  0.07644033  0.20569757  0.83063721     0.08300
C685        C  0.10208074  0.24043187  0.75079922     0.09300
S686        S  0.14799725  0.29616759  0.79268940    -0.25400
H687        H  0.13387559  0.27215251  0.85393215     0.19600
S688        S  0.04788142  0.17007604  0.84421176    -0.31100
H689        H  0.06278259  0.19356896  0.78277489     0.09900
C690        C  0.12152511  0.23419286  0.73405600     0.03100
C691        C  0.12073986  0.23359813  0.70115876    -0.13400
C692        C  0.10119783  0.23963808  0.68419181    -0.09000
C693        C  0.08364888  0.24858420  0.70127775     0.06500
C694        C  0.08355375  0.24786769  0.73421300    -0.14100
S695        S  0.14639080  0.22548802  0.75464926    -0.31100
H696        H  0.13471967  0.22720818  0.68874092     0.10800
S697        S  0.06192669  0.26238395  0.68287685    -0.28200
H698        H  0.06906353  0.25336205  0.74704137     0.08000
H699        H  0.06286955  0.16885586  0.87099702     0.26500
H700        H  0.16252404  0.22546719  0.72825609     0.21300
H701        H  0.08289676  0.27793297  0.65934918     0.26600
H702        H  0.13831959  0.29444597  0.76170155     0.15400
C703        C  0.12554432  0.37692787  0.73439369    -0.11900
C704        C  0.09864866  0.36464959  0.75068781     0.14700
C705        C  0.07192535  0.35165042  0.73360434     0.01600
C706        C  0.07264494  0.35124786  0.70083496    -0.16200
C707        C  0.09954531  0.36454331  0.68430336    -0.11000
C708        C  0.12628743  0.37672744  0.70150875     0.08300
C709        C  0.09905941  0.36612891  0.78543088     0.09300
S710        S  0.03621081  0.33626386  0.75215827    -0.25400
H711        H  0.05191732  0.34178542  0.68815385     0.19600
S712        S  0.16193158  0.39134376  0.68310489    -0.31100
H713        H  0.14609654  0.38653867  0.74742543     0.09900
C714        C  0.09091004  0.34100678  0.80407184     0.03100
C715        C  0.08965240  0.34311763  0.83682585    -0.13400
C716        C  0.09650704  0.36992931  0.85139619    -0.09000
C717        C  0.10485936  0.39513475  0.83247750     0.06500
C718        C  0.10641203  0.39301098  0.79989832    -0.14100
S719        S  0.08249089  0.30639885  0.78609539    -0.31100
H720        H  0.08360619  0.32390030  0.85119769     0.10800
S721        S  0.11209910  0.43022122  0.84806882    -0.28200
H722        H  0.11236136  0.41226008  0.78554998     0.08000
H723        H  0.15178123  0.37093775  0.65817840     0.26500
H724        H  0.07539561  0.28978478  0.81385135     0.21300
H725        H  0.08951130  0.41803374  0.87067556     0.26600
H726        H  0.04546613  0.35653757  0.77713756     0.15400
C727        C  0.23297708  0.38881849  0.73703448    -0.11900
C728        C  0.22693315  0.36251841  0.75177048     0.14700
C729        C  0.22178423  0.33803202  0.73298561     0.01600
C730        C  0.22437543  0.34107349  0.70029333    -0.16200
C731        C  0.23180936  0.36788391  0.68535147    -0.11000
C732        C  0.23552701  0.39198261  0.70434167     0.08300
C733        C  0.22799538  0.36246370  0.78666781     0.09300
S734        S  0.21222195  0.30228121  0.74865996    -0.25400
H735        H  0.22077180  0.32217163  0.68641400     0.19600
S736        S  0.24558382  0.42787420  0.68850155    -0.31100
H737        H  0.23699445  0.40750939  0.75151739     0.09900
C738        C  0.25059588  0.36063865  0.80278745     0.03100
C739        C  0.25121576  0.36141960  0.83566462    -0.13400
C740        C  0.23042370  0.36509537  0.85302894    -0.09000
C741        C  0.20803964  0.36740111  0.83687068     0.06500
C742        C  0.20727721  0.36637194  0.80395768    -0.14100
S743        S  0.27969108  0.35901025  0.78155776    -0.31100
H744        H  0.26861735  0.36009394  0.84800223     0.10800
S745        S  0.17934232  0.37069982  0.85671698    -0.28200
H746        H  0.19012603  0.36823126  0.79168125     0.08000
H747        H  0.23832243  0.43892442  0.71507358     0.26500
H748        H  0.29463954  0.35667040  0.80782250     0.21300
H749        H  0.17812522  0.35415474  0.88316012     0.26600
H750        H  0.20715243  0.30699728  0.77981709     0.15400
C751        C  0.23730628  0.86941547  0.15260440     0.79700
N752        N  0.24122002  0.84897683  0.13677791    -0.78600
C753        C  0.24645908  0.85155229  0.10532577     0.82200
N754        N  0.24786099  0.87469350  0.08949444    -0.78500
C755        C  0.24298526  0.89455797  0.10489231     0.82300
N756        N  0.23745256  0.89159161  0.13611643    -0.80200
C757        C  0.24031073  0.87068114  0.38910524     0.79700
N758        N  0.24156144  0.89378557  0.40505789    -0.78600
C759        C  0.24672201  0.89648181  0.43649991     0.82200
N760        N  0.25030552  0.87585968  0.45206066    -0.78500
C761        C  0.24828404  0.85242210  0.43617813     0.82300
N762        N  0.24346219  0.85003446  0.40485340    -0.80200
C763        C  0.09669615  0.86877243  0.38678301     0.79700
N764        N  0.11818054  0.89236801  0.40242329    -0.78600
C765        C  0.11620743  0.89545356  0.43377079     0.82200
N766        N  0.09266746  0.87450120  0.44990297    -0.78500
C767        C  0.07160376  0.85013273  0.43470494     0.82300
N768        N  0.07371477  0.84727636  0.40319095    -0.80200
C769        C  0.09752806  0.86840443  0.14999885     0.79700
N770        N  0.07424624  0.84667021  0.13426702    -0.78600
C771        C  0.07025319  0.84918091  0.10330161     0.82200
N772        N  0.08985286  0.87378605  0.08749738    -0.78500
C773        C  0.11369249  0.89552915  0.10277478     0.82300
N774        N  0.11739379  0.89281388  0.13400371    -0.80200
C775        C  0.09836329  0.73253279  0.15044126     0.79700
N776        N  0.07348357  0.72669858  0.13447998    -0.78600
C777        C  0.07028750  0.71920675  0.10354068     0.82200
N778        N  0.09199704  0.71705502  0.08838314    -0.78500
C779        C  0.11701537  0.72307617  0.10406546     0.82300
N780        N  0.12008203  0.73086346  0.13479078    -0.80200
C781        C  0.09856279  0.72724976  0.38627767     0.79700
N782        N  0.07434162  0.72410253  0.40134518    -0.78600
C783        C  0.07086858  0.71864908  0.43257051     0.82200
N784        N  0.09175998  0.71612508  0.44900619    -0.78500
C785        C  0.11651693  0.71991245  0.43429645     0.82300
N786        N  0.11995755  0.72567081  0.40290791    -0.80200
C787        C  0.35348868  0.60901246  0.38823538     0.79700
N788        N  0.37817100  0.63085912  0.40234788    -0.78600
C789        C  0.38311940  0.62949659  0.43351800     0.82200
N790        N  0.36313702  0.60622222  0.45081745    -0.78500
C791        C  0.33797545  0.58492475  0.43706534     0.82300
N792        N  0.33326649  0.58660518  0.40606426    -0.80200
C793        C  0.35654313  0.60910960  0.15199670     0.79700
N794        N  0.33484785  0.58543643  0.13656752    -0.78600
C795        C  0.33774110  0.58077660  0.10571145     0.82200
N796        N  0.36250656  0.60012798  0.08992359    -0.78500
C797        C  0.38413572  0.62425191  0.10491137     0.82300
N798        N  0.38115087  0.62857448  0.13593783    -0.80200
C799        C  0.35783549  0.75030110  0.15126689     0.79700
N800        N  0.38068495  0.75046835  0.13589959    -0.78600
C801        C  0.38389532  0.75520350  0.10442337     0.82200
N802        N  0.36391422  0.75941837  0.08820521    -0.78500
C803        C  0.34053165  0.75834077  0.10341765     0.82300
N804        N  0.33773042  0.75400777  0.13487035    -0.80200
C805        C  0.35962639  0.75168607  0.38826228     0.79700
N806        N  0.38321117  0.75472221  0.40471381    -0.78600
C807        C  0.38569102  0.76034576  0.43601665     0.82200
N808        N  0.36456375  0.76336891  0.45124321    -0.78500
C809        C  0.34071456  0.76000162  0.43512603     0.82300
N810        N  0.33829520  0.75404826  0.40394050    -0.80200
C811        C  0.22246380  0.61332414  0.38839970     0.79700
N812        N  0.21830097  0.58871338  0.40352793    -0.78600
C813        C  0.21022230  0.58417110  0.43425283     0.82200
N814        N  0.20624206  0.60443432  0.45011460    -0.78500
C815        C  0.21077874  0.62933735  0.43535101     0.82300
N816        N  0.21876996  0.63363726  0.40462311    -0.80200
C817        C  0.21352271  0.60657578  0.15290469     0.79700
N818        N  0.21213040  0.62872331  0.13785678    -0.78600
C819        C  0.20669559  0.62702043  0.10648801     0.82200
N820        N  0.20314412  0.60320107  0.08995093    -0.78500
C821        C  0.20566384  0.58153413  0.10465973     0.82300
N822        N  0.21089469  0.58335279  0.13602026    -0.80200
C823        C  0.24916274  0.82861673  0.08838192     0.42000
N824        N  0.24283949  0.78618910  0.07627372     0.00800
C825        C  0.28582044  0.74473438  0.44104909    -0.07000
H826        H  0.21810417  0.78776336  0.42201787     0.06300
C827        C  0.13813817  0.70403434  0.48200991    -0.07400
Co828      Co  0.27466598  0.78663431  0.01794750     0.74200
N829        N  0.23979938  0.78334250  0.46282412    -0.26600
Co830      Co  0.22745304  0.73921409  0.46327007     0.74100
C831        C  0.14013859  0.71911920  0.45239089     0.42100
N832        N  0.16690006  0.71161105  0.05745774     0.00500
N833        N  0.18305245  0.72662541  0.46491189     0.00600
N834        N  0.31818839  0.77587347  0.47737534    -0.47400
H835        H  0.27734211  0.85003143  0.04430117     0.06300
N836        N  0.25831463  0.80242711  0.48355091     0.00900
N837        N  0.21524858  0.69494596  0.46472022     0.00600
C838        C  0.20870204  0.65242978  0.45266881     0.42200
N839        N  0.18602580  0.72983400  0.07836263    -0.26000
C840        C  0.31924161  0.77582617  0.05730233    -0.06900
N841        N  0.23652672  0.80038947  0.09785054    -0.47100
N842        N  0.22152523  0.68069343  0.44319891    -0.47300
C843        C  0.31719316  0.76002801  0.08621513     0.42000
N844        N  0.29086776  0.77021331  0.48302091     0.00800
N845        N  0.21719901  0.69733380  0.07887818    -0.26000
N846        N  0.25926037  0.80343150  0.05328669    -0.26500
N847        N  0.19866380  0.67834370  0.05809755     0.00500
H848        H  0.23751744  0.69241896  0.12069274     0.06400
H849        H  0.18018586  0.63102839  0.49654597     0.06400
N850        N  0.27168828  0.75187490  0.46224309    -0.26600
N851        N  0.16587016  0.70969037  0.48767533    -0.26200
N852        N  0.27458536  0.75403373  0.07544661     0.00800
C853        C  0.24819363  0.82799745  0.45249512     0.42200
C854        C  0.17197243  0.73779646  0.09883619    -0.07400
N855        N  0.19869199  0.67768808  0.48762729    -0.26200
H856        H  0.11887673  0.69011403  0.49603029     0.06400
N857        N  0.26395684  0.82975433  0.47828437    -0.47400
H858        H  0.18185911  0.75223741  0.11880965     0.06400
C859        C  0.20711582  0.65207256  0.09043394     0.42100
C860        C  0.26415212  0.83086502  0.05868070    -0.06900
Co861      Co  0.23021652  0.74182503  0.07770416     0.73800
N862        N  0.13972862  0.70671015  0.06241268    -0.47100
C863        C  0.31633903  0.76040883  0.45122267     0.42300
N864        N  0.28900558  0.74723047  0.09616661    -0.47100
Co865      Co  0.18076511  0.69279328  0.02278079     0.73900
C866        C  0.19358272  0.65019798  0.48223196    -0.07400
C867        C  0.23241461  0.79754884  0.44209959    -0.07000
N868        N  0.29172335  0.77106787  0.05269623    -0.26500
N869        N  0.16857971  0.73247227  0.44325977    -0.47300
H870        H  0.27591088  0.73055748  0.42089441     0.06400
C871        C  0.22355247  0.68274901  0.10035405    -0.07400
Cl872      Cl  0.22778360  0.73961174  0.02038617    -0.50400
C873        C  0.14155386  0.72268300  0.08813013     0.42100
H874        H  0.33829106  0.78927365  0.04281439     0.06300
N875        N  0.19214054  0.65079921  0.06403926    -0.47100
C876        C  0.04684442  0.82664627  0.45217912     0.42000
N877        N  0.51049219  0.78705299  0.46250933     0.00800
C878        C  0.42325561  0.73899121  0.09835668    -0.07000
H879        H  0.03508466  0.78420917  0.11804324     0.06300
C880        C  0.03136066  0.70040195  0.05686700    -0.07400
Co881      Co  0.47668635  0.78293652  0.02151789     0.74200
N882        N  0.50860875  0.77822869  0.07710045    -0.26600
Co883      Co  0.47676595  0.73396221  0.07610011     0.74100
C884        C  0.04446526  0.71591805  0.08635659     0.42100
N885        N  0.51113698  0.71147105  0.47926576     0.00500
N886        N  0.50878969  0.72189186  0.07397212     0.00600
N887        N  0.42236934  0.77017387  0.06218835    -0.47400
H888        H  0.03954253  0.84791564  0.49616914     0.06300
N889        N  0.50939453  0.79725798  0.05632614     0.00900
N890        N  0.44503213  0.68963112  0.07452240     0.00600
C891        C  0.40948426  0.64702182  0.08728446     0.42200
N892        N  0.51055641  0.73002785  0.45870541    -0.26000
C893        C  0.42376581  0.77642298  0.48265598    -0.06900
N894        N  0.03118543  0.79846995  0.44230022    -0.47100
N895        N  0.42481187  0.67546204  0.09629719    -0.47300
C896        C  0.41033397  0.76136910  0.45321889     0.42000
N897        N  0.44410736  0.76456566  0.05663390     0.00800
N898        N  0.44658514  0.69843851  0.45902897    -0.26000
N899        N  0.51107418  0.80407409  0.48575755    -0.26500
N900        N  0.44576284  0.67920942  0.47956296     0.00500
H901        H  0.41999617  0.69451963  0.41864014     0.06400
H902        H  0.41642080  0.62533382  0.04333219     0.06400
N903        N  0.44479627  0.74622091  0.07735173    -0.26600
N904        N  0.50947937  0.70524096  0.05104502    -0.26200
N905        N  0.44672738  0.75506386  0.46363828     0.00800
C906        C  0.04563219  0.82430270  0.08726826     0.42200
C907        C  0.03113156  0.73410670  0.43836643    -0.07400
N908        N  0.44440840  0.67224327  0.05167606    -0.26200
H909        H  0.03726947  0.68703036  0.04256807     0.06400
N910        N  0.03165617  0.82572984  0.06129525    -0.47400
H911        H  0.03552497  0.74829098  0.41829529     0.06400
C912        C  0.40932806  0.65391736  0.44847625     0.42100
C913        C  0.03363818  0.82878854  0.48160173    -0.06900
Co914      Co  0.47865136  0.74267847  0.46050723     0.73800
N915        N  0.03205298  0.70287045  0.47450250    -0.47100
C916        C  0.40837094  0.75466034  0.08815838     0.42300
N917        N  0.42570201  0.74874894  0.44277967    -0.47100
Co918      Co  0.47670383  0.68921125  0.01609979     0.73900
C919        C  0.42217237  0.64467148  0.05746876    -0.07400
C920        C  0.03068499  0.79383120  0.09779680    -0.07000
N921        N  0.44644161  0.77155448  0.48700134    -0.26500
N922        N  0.02901616  0.72883125  0.09556230    -0.47300
H923        H  0.41885831  0.72481768  0.11843741     0.06400
C924        C  0.42463482  0.68446324  0.43830147    -0.07400
Cl925      Cl  0.47664896  0.73607455  0.01869907    -0.50400
C926        C  0.04578262  0.71815896  0.44838580     0.42100
H927        H  0.41818517  0.78971466  0.49752169     0.06300
N928        N  0.42345764  0.65209210  0.47423685    -0.47100
C929        C  0.24755019  0.92116662  0.45354884     0.42000
N930        N  0.24148855  0.95769165  0.46408576     0.00800
C931        C  0.28236321  0.54156893  0.09930440    -0.07000
H932        H  0.21303790  0.92987662  0.11812485     0.06300
C933        C  0.13481225  0.93382353  0.05570624    -0.07400
Co934      Co  0.27338798  0.98767376  0.02242099     0.74200
N935        N  0.23566662  0.95601052  0.07759905    -0.26600
Co936      Co  0.22389438  0.98826680  0.07611848     0.74100
C937        C  0.13671322  0.92088445  0.08546250     0.42100
N938        N  0.16568007  0.95710037  0.48079891     0.00500
N939        N  0.17947498  0.95675422  0.07369706     0.00600
N940        N  0.31452002  0.54184104  0.06345918    -0.47400
H941        H  0.27605434  0.92909308  0.49763409     0.06300
N942        N  0.25417060  0.95506918  0.05717788     0.00900
N943        N  0.21161105  0.52118142  0.07506110     0.00600
C944        C  0.20477850  0.55710503  0.08679955     0.42200
N945        N  0.18496979  0.95783031  0.46027775    -0.26000
C946        C  0.31756899  0.54663749  0.48384696    -0.06900
N947        N  0.23497640  0.93657910  0.44319602    -0.47100
N948        N  0.21781183  0.54186160  0.09641528    -0.47300
C949        C  0.31505967  0.56035330  0.45506836     0.42000
N950        N  0.28704101  0.52036940  0.05770103     0.00800
N951        N  0.21631098  0.52214229  0.46179451    -0.26000
N952        N  0.25808565  0.95746266  0.48726326    -0.26500
N953        N  0.19780831  0.52300619  0.48227126     0.00500
H954        H  0.23842861  0.54772395  0.42088197     0.06400
H955        H  0.17578575  0.54924724  0.04311367     0.06400
N956        N  0.26799408  0.52008405  0.07825723    -0.26600
N957        N  0.16246007  0.95623971  0.05053470    -0.26200
N958        N  0.27301957  0.52282560  0.46545884     0.00800
C959        C  0.24287398  0.91890768  0.08825441     0.42200
C960        C  0.17103058  0.93594786  0.43957656    -0.07400
N961        N  0.19472798  0.52146960  0.05219544    -0.26200
H962        H  0.11572128  0.92803909  0.04115644     0.06400
N963        N  0.25913313  0.93294793  0.06269886    -0.47400
H964        H  0.18110130  0.93132247  0.41984685     0.06400
C965        C  0.20841083  0.55857780  0.45036975     0.42100
C966        C  0.26282599  0.93473229  0.48283810    -0.06900
Co967      Co  0.22926403  0.98965783  0.46156743     0.73800
N968        N  0.13849519  0.93490219  0.47544590    -0.47100
C969        C  0.31299561  0.55596905  0.08943858     0.42300
N970        N  0.28698950  0.54430702  0.44499615    -0.47100
Co971      Co  0.18007992  0.98866132  0.01524111     0.73900
C972        C  0.18949662  0.54382829  0.05737971    -0.07400
C973        C  0.22759239  0.93422570  0.09833008    -0.07000
N974        N  0.29031742  0.52333332  0.48826082    -0.26500
N975        N  0.16496983  0.93627483  0.09508002    -0.47300
H976        H  0.27254331  0.54624560  0.11923037     0.06400
C977        C  0.22393536  0.54349576  0.44069402    -0.07400
Cl978      Cl  0.22679092  0.98828089  0.01885837    -0.50400
C979        C  0.14049896  0.92073030  0.44978982     0.42100
H980        H  0.33669547  0.55271462  0.49844696     0.06300
N981        N  0.19255220  0.54493813  0.47640411    -0.47100
C982        C  0.20627561  0.58710045  0.23986701    -0.11900
C983        C  0.22886102  0.61343994  0.25283790     0.14700
C984        C  0.24736028  0.63671983  0.23261374     0.01600
C985        C  0.24154065  0.63415351  0.20031668    -0.16200
C986        C  0.21844847  0.60808433  0.18730622    -0.11000
C987        C  0.20096224  0.58407924  0.20746120     0.08300
C988        C  0.23064655  0.61680913  0.28754916     0.05700
S989        S  0.27881461  0.67001952  0.24678459    -0.25400
H990        H  0.25560386  0.65242760  0.18510749     0.19600
S991        S  0.17066222  0.54951662  0.19367485    -0.31100
H992        H  0.19204036  0.56906822  0.25524757     0.09900
C993        C  0.21759941  0.63118724  0.30322422     0.03100
C994        C  0.21632545  0.63075648  0.33612156    -0.13400
C995        C  0.22854430  0.61690403  0.35399311    -0.09000
C996        C  0.24421107  0.60509412  0.33812069     0.06500
C997        C  0.24427900  0.60435179  0.30520120    -0.14100
S998        S  0.20140852  0.64907275  0.28131897    -0.31100
H999        H  0.20468106  0.64028368  0.34787757     0.10800
S1000       S  0.26570331  0.59195230  0.35828997    -0.28200
H1001       H  0.25532446  0.59428412  0.29321975     0.08000
H1002       H  0.16125213  0.56205060  0.17048892     0.26500
H1003       H  0.19692514  0.66327194  0.30703374     0.21300
H1004       H  0.27415792  0.61238495  0.38311081     0.26600
H1005       H  0.28601440  0.65623558  0.27068756     0.15400
C1006       C  0.37737476  0.74553694  0.30221041    -0.11900
C1007       C  0.35415790  0.74651327  0.28684642     0.14700
C1008       C  0.33115706  0.74574737  0.30498849     0.01600
C1009       C  0.33347544  0.74701550  0.33771115    -0.16200
C1010       C  0.35738832  0.74731303  0.35340374    -0.11000
C1011       C  0.37872221  0.74483956  0.33497855     0.08300
C1012       C  0.35452061  0.74765819  0.25201051     0.09300
S1013       S  0.29793232  0.74270637  0.28834713    -0.25400
H1014       H  0.31613104  0.74768181  0.35094430     0.19600
S1015       S  0.40745232  0.73932453  0.35111295    -0.31100
H1016       H  0.39445558  0.74484132  0.28844259     0.09900
C1017       C  0.35691268  0.77211737  0.23551402     0.03100
C1018       C  0.35710968  0.77190316  0.20259922    -0.13400
C1019       C  0.35580503  0.74816700  0.18577546    -0.09000
C1020       C  0.35351215  0.72377483  0.20231204     0.06500
C1021       C  0.35308320  0.72392280  0.23512144    -0.14100
S1022       S  0.36094561  0.80411453  0.25622473    -0.31100
H1023       H  0.35908326  0.79066061  0.18981963     0.10800
S1024       S  0.35017917  0.69147747  0.18310926    -0.28200
H1025       H  0.35096914  0.70506801  0.24767439     0.08000
H1026       H  0.38791322  0.71619429  0.37083876     0.26500
H1027       H  0.36319794  0.82093777  0.22962505     0.21300
H1028       H  0.33571963  0.69331322  0.15616394     0.26600
H1029       H  0.30007489  0.73274392  0.25845633     0.15400
C1030       C  0.33282041  0.58526815  0.30249250    -0.11900
C1031       C  0.34579160  0.61268387  0.28739236     0.14700
C1032       C  0.35901199  0.63865773  0.30577639     0.01600
C1033       C  0.36072119  0.63678138  0.33841875    -0.16200
C1034       C  0.34898403  0.60939616  0.35365571    -0.11000
C1035       C  0.33428867  0.58320384  0.33527407     0.08300
C1036       C  0.34890410  0.61346232  0.25259334     0.09300
S1037       S  0.37518613  0.67492147  0.28878327    -0.25400
H1038       H  0.37158392  0.65700501  0.35201908     0.19600
S1039       S  0.31963542  0.54694792  0.35247595    -0.31100
H1040       H  0.32289240  0.56543931  0.28826562     0.09900
C1041       C  0.37584259  0.61955740  0.23860579     0.03100
C1042       C  0.37809211  0.61927949  0.20576340    -0.13400
C1043       C  0.35386097  0.61277928  0.18632770    -0.09000
C1044       C  0.32714568  0.60773441  0.20044788     0.06500
C1045       C  0.32480949  0.60764190  0.23330293    -0.14100
S1046       S  0.40710195  0.62656213  0.26277355    -0.31100
H1047       H  0.39854679  0.62313030  0.19517605     0.10800
S1048       S  0.29569400  0.60251887  0.17787825    -0.28200
H1049       H  0.30421769  0.60345520  0.24390948     0.08000
H1050       H  0.30813112  0.53037096  0.32483680     0.26500
H1051       H  0.42623071  0.62928598  0.23819348     0.21300
H1052       H  0.31238948  0.62104427  0.15306764     0.26600
H1053       H  0.35774215  0.66603351  0.26156204     0.15400
C1054       C  0.08122508  0.71263474  0.29949538    -0.11900
C1055       C  0.10210824  0.73959177  0.28623017     0.14700
C1056       C  0.12193550  0.76276021  0.30616814     0.01600
C1057       C  0.12104324  0.75797454  0.33866361    -0.16200
C1058       C  0.10043232  0.73075385  0.35180371    -0.11000
C1059       C  0.08020221  0.70795059  0.33186224     0.08300
C1060       C  0.10371923  0.74155197  0.25148765     0.09300
S1061       S  0.14866135  0.79891252  0.29197435    -0.25400
H1062       H  0.13612585  0.77581641  0.35388213     0.19600
S1063       S  0.05284703  0.67211895  0.34618036    -0.31100
H1064       H  0.06602387  0.69478006  0.28435567     0.09900
C1065       C  0.12373284  0.73614495  0.23474147     0.03100
C1066       C  0.12222920  0.73447930  0.20188279    -0.13400
C1067       C  0.10138909  0.73867568  0.18499553    -0.09000
C1068       C  0.08308343  0.74666701  0.20204974     0.06500
C1069       C  0.08371438  0.74690391  0.23493717    -0.14100
S1070       S  0.15007073  0.72956525  0.25533759    -0.31100
H1071       H  0.13673482  0.72873965  0.18950032     0.10800
S1072       S  0.05936814  0.75805239  0.18365952    -0.28200
H1073       H  0.06856341  0.75148150  0.24776536     0.08000
H1074       H  0.06956122  0.67152407  0.37168632     0.26500
H1075       H  0.16745730  0.73210177  0.22906153     0.21300
H1076       H  0.08003079  0.77483206  0.16033188     0.26600
H1077       H  0.13687356  0.79665255  0.26188429     0.15400
C1078       C  0.12567596  0.87719206  0.23453037    -0.11900
C1079       C  0.09885805  0.86265470  0.25105513     0.14700
C1080       C  0.07205147  0.84908798  0.23407823     0.01600
C1081       C  0.07265299  0.85059604  0.20134828    -0.16200
C1082       C  0.09937535  0.86583349  0.18462819    -0.11000
C1083       C  0.12628095  0.87852812  0.20163091     0.08300
C1084       C  0.09949557  0.86365395  0.28588662     0.09300
S1085       S  0.03617428  0.83021079  0.25254375    -0.25400
H1086       H  0.05177826  0.84060438  0.18889982     0.19600
S1087       S  0.16201582  0.89554316  0.18300865    -0.31100
H1088       H  0.14633219  0.88738743  0.24741008     0.09900
C1089       C  0.09121009  0.83839507  0.30442692     0.03100
C1090       C  0.09042090  0.84049192  0.33729483    -0.13400
C1091       C  0.09772202  0.86738445  0.35203095    -0.09000
C1092       C  0.10590094  0.89256921  0.33316468     0.06500
C1093       C  0.10718132  0.89051118  0.30057973    -0.14100
S1094       S  0.08161145  0.80356462  0.28622446    -0.31100
H1095       H  0.08421529  0.82119529  0.35158022     0.10800
S1096       S  0.11298052  0.92757208  0.34882617    -0.28200
H1097       H  0.11307669  0.90982775  0.28638346     0.08000
H1098       H  0.15288141  0.87550608  0.15777179     0.26500
H1099       H  0.07741279  0.78759697  0.31405973     0.21300
H1100       H  0.09006859  0.91518604  0.37107198     0.26600
H1101       H  0.04417475  0.84733291  0.28003114     0.15400
C1102       C  0.23741671  0.89008062  0.23908415    -0.11900
C1103       C  0.23129540  0.86387311  0.25402355     0.14700
C1104       C  0.22519070  0.83894440  0.23562326     0.01600
C1105       C  0.22673212  0.84134909  0.20286732    -0.16200
C1106       C  0.23397079  0.86798554  0.18758334    -0.11000
C1107       C  0.23905358  0.89269352  0.20633873     0.08300
C1108       C  0.23303590  0.86424553  0.28875537     0.09300
S1109       S  0.21573811  0.80351863  0.25210622    -0.25400
H1110       H  0.22235737  0.82207979  0.18920248     0.19600
S1111       S  0.24940544  0.92845633  0.18987519    -0.31100
H1112       H  0.24195505  0.90899729  0.25346181     0.09900
C1113       C  0.25595004  0.86264899  0.30445664     0.03100
C1114       C  0.25734813  0.86427058  0.33726538    -0.13400
C1115       C  0.23682294  0.86825792  0.35473749    -0.09000
C1116       C  0.21392968  0.86988882  0.33901083     0.06500
C1117       C  0.21251630  0.86826019  0.30623127    -0.14100
S1118       S  0.28435458  0.86017568  0.28275151    -0.31100
H1119       H  0.27500455  0.86324373  0.34940993     0.10800
S1120       S  0.18529244  0.87283349  0.35944041    -0.28200
H1121       H  0.19503534  0.86973452  0.29421333     0.08000
H1122       H  0.25255165  0.94368093  0.21812013     0.26500
H1123       H  0.29987317  0.85840097  0.30880288     0.21300
H1124       H  0.18361155  0.85493200  0.38480559     0.26600
H1125       H  0.20851358  0.80822112  0.28241787     0.15400
C1126       C  0.24067727  0.87265000  0.65139268     0.79700
N1127       N  0.24395060  0.85194532  0.63535701    -0.78600
C1128       C  0.24803151  0.85392229  0.60377818     0.82200
N1129       N  0.24890132  0.87683436  0.58790735    -0.78500
C1130       C  0.24462824  0.89700623  0.60360718     0.82300
N1131       N  0.24029414  0.89459422  0.63502841    -0.80200
C1132       C  0.23671748  0.86815091  0.88813095     0.79700
N1133       N  0.23848808  0.89135479  0.90436419    -0.78600
C1134       C  0.24402068  0.89387202  0.93575976     0.82200
N1135       N  0.24754166  0.87308941  0.95094615    -0.78500
C1136       C  0.24503308  0.84957644  0.93487490     0.82300
N1137       N  0.23984255  0.84729152  0.90356312    -0.80200
C1138       C  0.09786952  0.86684525  0.88676199     0.79700
N1139       N  0.11918152  0.89050653  0.90243251    -0.78600
C1140       C  0.11684515  0.89393652  0.93361754     0.82200
N1141       N  0.09303192  0.87322516  0.94964632    -0.78500
C1142       C  0.07202863  0.84875553  0.93448317     0.82300
N1143       N  0.07454812  0.84557280  0.90305463    -0.80200
C1144       C  0.09967620  0.86844705  0.65035925     0.79700
N1145       N  0.07617643  0.84687544  0.63470489    -0.78600
C1146       C  0.07154293  0.84988061  0.60401061     0.82200
N1147       N  0.09068383  0.87486253  0.58844653    -0.78500
C1148       C  0.11469144  0.89649242  0.60362956     0.82300
N1149       N  0.11907722  0.89324462  0.63456845    -0.80200
C1150       C  0.09873751  0.73089886  0.64981732     0.79700
N1151       N  0.07481928  0.72665534  0.63306527    -0.78600
C1152       C  0.07288736  0.72084348  0.60177497     0.82200
N1153       N  0.09485316  0.71886806  0.58704967    -0.78500
C1154       C  0.11894147  0.72341839  0.60361493     0.82300
N1155       N  0.12080050  0.72947299  0.63470219    -0.80200
C1156       C  0.09453160  0.72266558  0.88590309     0.79700
N1157       N  0.07118052  0.72076562  0.90175949    -0.78600
C1158       C  0.06878294  0.71656784  0.93319945     0.82200
N1159       N  0.09009692  0.71447478  0.94919311    -0.78500
C1160       C  0.11420549  0.71740061  0.93380715     0.82300
N1161       N  0.11651515  0.72174540  0.90215112    -0.80200
C1162       C  0.35689965  0.60436950  0.88631745     0.79700
N1163       N  0.38084825  0.62588760  0.90159285    -0.78600
C1164       C  0.38448297  0.62405624  0.93287284     0.82200
N1165       N  0.36389729  0.60056809  0.94932228    -0.78500
C1166       C  0.33936717  0.57939082  0.93455884     0.82300
N1167       N  0.33585814  0.58150573  0.90322999    -0.80200
C1168       C  0.35874103  0.61316069  0.65012232     0.79700
N1169       N  0.33631694  0.58979572  0.63505741    -0.78600
C1170       C  0.33824573  0.58523935  0.60396193     0.82200
N1171       N  0.36280365  0.60441143  0.58761987    -0.78500
C1172       C  0.38509807  0.62826863  0.60238066     0.82300
N1173       N  0.38302792  0.63238137  0.63359039    -0.80200
C1174       C  0.36023776  0.75278418  0.65233215     0.79700
N1175       N  0.38349621  0.75376913  0.63683941    -0.78600
C1176       C  0.38734983  0.75959227  0.60557022     0.82200
N1177       N  0.36755844  0.76413207  0.58941127    -0.78500
C1178       C  0.34388070  0.76246797  0.60452302     0.82300
N1179       N  0.34058473  0.75709768  0.63577431    -0.80200
C1180       C  0.35801267  0.75136249  0.88861281     0.79700
N1181       N  0.38091484  0.75207151  0.90440213    -0.78600
C1182       C  0.38335315  0.75651582  0.93595485     0.82200
N1183       N  0.36260049  0.75988421  0.95175330    -0.78500
C1184       C  0.33928837  0.75831522  0.93597473     0.82300
N1185       N  0.33722058  0.75424802  0.90451703    -0.80200
C1186       C  0.22119794  0.61201452  0.88936947     0.79700
N1187       N  0.21744272  0.58747346  0.90425345    -0.78600
C1188       C  0.20980219  0.58284314  0.93505253     0.82200
N1189       N  0.20564143  0.60286197  0.95124391    -0.78500
C1190       C  0.20972136  0.62767587  0.93664461     0.82300
N1191       N  0.21744535  0.63211713  0.90587607    -0.80200
C1192       C  0.21470273  0.60823890  0.65336015     0.79700
N1193       N  0.21521971  0.63113107  0.63777425    -0.78600
C1194       C  0.21029150  0.62945644  0.60629869     0.82200
N1195       N  0.20532691  0.60494515  0.59020730    -0.78500
C1196       C  0.20595704  0.58250531  0.60542914     0.82300
N1197       N  0.21068793  0.58425482  0.63689014    -0.80200
C1198       C  0.25028876  0.83062486  0.58702811     0.42000
N1199       N  0.24488995  0.78827014  0.57617848     0.00800
C1200       C  0.28421425  0.74228280  0.94193301    -0.07000
H1201       H  0.21641140  0.78501085  0.92076779     0.06300
C1202       C  0.13619903  0.70241482  0.98147824    -0.07400
Co1203     Co  0.27695125  0.78855281  0.51809887     0.74200
N1204       N  0.23788444  0.78120655  0.96210723    -0.26600
Co1205     Co  0.22555535  0.73717297  0.96308314     0.74100
C1206       C  0.13814658  0.71699867  0.95160876     0.42100
N1207       N  0.16952883  0.71288932  0.55771639     0.00500
N1208       N  0.18108290  0.72466569  0.96426361     0.00600
N1209       N  0.31631357  0.77400030  0.97804602    -0.47400
H1210       H  0.27868405  0.85165553  0.54304824     0.06300
N1211       N  0.25603431  0.80045937  0.98295140     0.00900
N1212       N  0.21329572  0.69300165  0.96519283     0.00600
C1213       C  0.20749050  0.65064469  0.95395649     0.42200
N1214       N  0.18847514  0.73119922  0.57868980    -0.26000
C1215       C  0.32211697  0.77899352  0.55788505    -0.06900
N1216       N  0.23801837  0.80255922  0.59712551    -0.47100
N1217       N  0.22016030  0.67879545  0.94423031    -0.47300
C1218       C  0.32040887  0.76396724  0.58728702     0.42000
N1219       N  0.28892092  0.76841534  0.98317447     0.00800
N1220       N  0.22058045  0.69963947  0.57874467    -0.26000
N1221       N  0.26140119  0.80536950  0.55315828    -0.26500
N1222       N  0.20214780  0.68056924  0.55791689     0.00500
H1223       H  0.24161253  0.69502582  0.62014641     0.06400
H1224       H  0.17838074  0.62929583  0.99748748     0.06400
N1225       N  0.26988214  0.74978131  0.96251252    -0.26600
N1226       N  0.16387667  0.70808284  0.98720893    -0.26200
N1227       N  0.27742240  0.75676963  0.57592918     0.00800
C1228       C  0.24588374  0.82554358  0.95107150     0.42200
C1229       C  0.17407964  0.73869868  0.59922243    -0.07400
N1230       N  0.19642127  0.67580968  0.98798195    -0.26200
H1231       H  0.11696223  0.68867398  0.99559724     0.06400
N1232       N  0.26137800  0.82764380  0.97728517    -0.47400
H1233       H  0.18372073  0.75313257  0.61924367     0.06400
C1234       C  0.21157637  0.65465100  0.58974774     0.42100
C1235       C  0.26573628  0.83269097  0.55777867    -0.06900
Co1236     Co  0.23286895  0.74395722  0.57792748     0.73800
N1237       N  0.14223649  0.70758661  0.56252119    -0.47100
C1238       C  0.31468735  0.75806222  0.95240263     0.42300
N1239       N  0.29214836  0.75081521  0.59711301    -0.47100
Co1240     Co  0.18339389  0.69451721  0.52287056     0.73900
C1241       C  0.19174160  0.64839023  0.98307508    -0.07400
C1242       C  0.23054229  0.79507492  0.94089941    -0.07000
N1243       N  0.29438634  0.77351799  0.55294813    -0.26500
N1244       N  0.16657771  0.73023582  0.94235235    -0.47300
H1245       H  0.27448880  0.72779754  0.92196924     0.06400
C1246       C  0.22757985  0.68527525  0.59988659    -0.07400
Cl1247     Cl  0.23017110  0.74150894  0.52057088    -0.50400
C1248       C  0.14373414  0.72328300  0.58827512     0.42100
H1249       H  0.34112065  0.79261758  0.54341652     0.06300
N1250       N  0.19619822  0.65317861  0.56362697    -0.47100
C1251       C  0.04681531  0.82556315  0.95191055     0.42000
N1252       N  0.50860356  0.78283963  0.96306073     0.00800
C1253       C  0.42679182  0.74340276  0.59893197    -0.07000
H1254       H  0.03673395  0.78486125  0.61821854     0.06300
C1255       C  0.03443254  0.70269334  0.55494132    -0.07400
Co1256     Co  0.47928486  0.78703768  0.52152213     0.74200
N1257       N  0.51185670  0.78180609  0.57630191    -0.26600
Co1258     Co  0.47951959  0.73753229  0.57523625     0.74100
C1259       C  0.04790253  0.71862118  0.58408484     0.42100
N1260       N  0.50892891  0.70727673  0.98078851     0.00500
N1261       N  0.51100924  0.72475196  0.57262037     0.00600
N1262       N  0.42576011  0.77480059  0.56317480    -0.47400
H1263       H  0.03960274  0.84724325  0.99564175     0.06300
N1264       N  0.51237324  0.80100028  0.55589058     0.00900
N1265       N  0.44722264  0.69328644  0.57309925     0.00600
C1266       C  0.41055548  0.65093952  0.58478038     0.42200
N1267       N  0.50812177  0.72551937  0.95996975    -0.26000
C1268       C  0.42161089  0.77231607  0.98213928    -0.06900
N1269       N  0.03078871  0.79737737  0.94213142    -0.47100
N1270       N  0.42657214  0.67915037  0.59447114    -0.47300
C1271       C  0.40805812  0.75711635  0.95284114     0.42000
N1272       N  0.44718506  0.76886275  0.55704231     0.00800
N1273       N  0.44476437  0.69389039  0.96027950    -0.26000
N1274       N  0.50899858  0.79989885  0.98616907    -0.26500
N1275       N  0.44409214  0.67491803  0.98112705     0.00500
H1276       H  0.41949407  0.68902246  0.91851191     0.06400
H1277       H  0.41712884  0.62949058  0.54042856     0.06400
N1278       N  0.44795023  0.75036749  0.57748438    -0.26600
N1279       N  0.51131430  0.70800192  0.54957827    -0.26200
N1280       N  0.44441234  0.75067171  0.96347576     0.00800
C1281       C  0.04681350  0.82507299  0.58791184     0.42200
C1282       C  0.02997543  0.73306321  0.93924327    -0.07400
N1283       N  0.44624981  0.67603233  0.54990467    -0.26200
H1284       H  0.04047664  0.68956363  0.54040210     0.06400
N1285       N  0.03272703  0.82649571  0.56199157    -0.47400
H1286       H  0.03447450  0.74712327  0.91903708     0.06400
C1287       C  0.40923320  0.64884239  0.94889328     0.42100
C1288       C  0.03345591  0.82802785  0.98113364    -0.06900
Co1289     Co  0.47648760  0.73827984  0.96123976     0.73800
N1290       N  0.03056428  0.70186878  0.97566396    -0.47100
C1291       C  0.41205601  0.75940994  0.58930805     0.42300
N1292       N  0.42339085  0.74435037  0.94249616    -0.47100
Co1293     Co  0.47861233  0.69296165  0.51444591     0.73900
C1294       C  0.42335959  0.64865620  0.55504431    -0.07400
C1295       C  0.03217645  0.79453051  0.59812606    -0.07000
N1296       N  0.44416619  0.76732942  0.98665675    -0.26500
N1297       N  0.03210944  0.73092622  0.59391780    -0.47300
H1298       H  0.42250378  0.72912552  0.61890639     0.06400
C1299       C  0.42371264  0.67938416  0.93885341    -0.07400
Cl1300     Cl  0.47905992  0.74006716  0.51791461    -0.50400
C1301       C  0.04449955  0.71713019  0.94958579     0.42100
H1302       H  0.41612328  0.78574457  0.99687161     0.06300
N1303       N  0.42281788  0.64744686  0.97526489    -0.47100
C1304       C  0.24600154  0.91889947  0.95309025     0.42000
N1305       N  0.24135816  0.95612462  0.96400792     0.00800
C1306       C  0.28270894  0.54482348  0.59898051    -0.07000
H1307       H  0.21373710  0.93137497  0.61759930     0.06300
C1308       C  0.13486515  0.93506965  0.55667009    -0.07400
Co1309     Co  0.27351498  0.99004025  0.52211416     0.74200
N1310       N  0.23620732  0.95812894  0.57735925    -0.26600
Co1311     Co  0.22401080  0.99017385  0.57615063     0.74100
C1312       C  0.13720288  0.92230598  0.58639702     0.42100
N1313       N  0.16609685  0.95597375  0.98032224     0.00500
N1314       N  0.17967791  0.95841996  0.57417186     0.00600
N1315       N  0.31477923  0.54543883  0.56283875    -0.47400
H1316       H  0.27411579  0.92556695  0.99728385     0.06300
N1317       N  0.25477842  0.95753799  0.55677901     0.00900
N1318       N  0.21118407  0.52190890  0.57575123     0.00600
C1319       C  0.20400781  0.55746481  0.58794348     0.42200
N1320       N  0.18540961  0.95674301  0.95984036    -0.26000
C1321       C  0.31763591  0.54210471  0.98202021    -0.06900
N1322       N  0.23425258  0.93505833  0.94295738    -0.47100
N1323       N  0.21707211  0.54224667  0.59739397    -0.47300
C1324       C  0.31573993  0.55520873  0.95246517     0.42000
N1325       N  0.28754848  0.52316442  0.55791971     0.00800
N1326       N  0.21626308  0.52063126  0.96157311    -0.26000
N1327       N  0.25758261  0.95521970  0.98721392    -0.26500
N1328       N  0.19776538  0.52145385  0.98211995     0.00500
H1329       H  0.23844786  0.54665672  0.92089604     0.06400
H1330       H  0.17557728  0.55023446  0.54388762     0.06400
N1331       N  0.26845629  0.52257956  0.57860646    -0.26600
N1332       N  0.16237641  0.95764910  0.55118921    -0.26200
N1333       N  0.27277926  0.51995115  0.96449785     0.00800
C1334       C  0.24378400  0.92106591  0.58719656     0.42200
C1335       C  0.17153724  0.93478780  0.93920890    -0.07400
N1336       N  0.19451470  0.52241584  0.55276485    -0.26200
H1337       H  0.11561042  0.92899530  0.54228923     0.06400
N1338       N  0.25996411  0.93550489  0.56180250    -0.47400
H1339       H  0.18166505  0.93006981  0.91960233     0.06400
C1340       C  0.20845255  0.55733770  0.95079264     0.42100
C1341       C  0.26145873  0.93195813  0.98252267    -0.06900
Co1342     Co  0.22972693  0.98833207  0.96157865     0.73800
N1343       N  0.13895615  0.93365518  0.97506828    -0.47100
C1344       C  0.31324388  0.56000571  0.58836522     0.42300
N1345       N  0.28738581  0.54030224  0.94301483    -0.47100
Co1346     Co  0.17959697  0.98993503  0.51563751     0.73900
C1347       C  0.18912087  0.54463146  0.55820409    -0.07400
C1348       C  0.22832586  0.93610961  0.59776573    -0.07000
N1349       N  0.28987785  0.52011780  0.98737665    -0.26500
N1350       N  0.16553589  0.93796425  0.59567917    -0.47300
H1351       H  0.27288302  0.54970775  0.61874444     0.06400
C1352       C  0.22397218  0.54226508  0.94075294    -0.07400
Cl1353     Cl  0.22657829  0.98998829  0.51887121    -0.50400
C1354       C  0.14102066  0.91943833  0.94949103     0.42100
H1355       H  0.33679501  0.54736188  0.99622593     0.06300
N1356       N  0.19257565  0.54345908  0.97663968    -0.47100
C1357       C  0.20484520  0.58808784  0.74020623    -0.11900
C1358       C  0.22731406  0.61411832  0.75379697     0.14700
C1359       C  0.24628186  0.63777144  0.73413620     0.01600
C1360       C  0.24146971  0.63541321  0.70161933    -0.16200
C1361       C  0.21862645  0.60953613  0.68795972    -0.11000
C1362       C  0.20019266  0.58555586  0.70771452     0.08300
C1363       C  0.22864915  0.61652099  0.78855207     0.05700
S1364       S  0.27682291  0.67157148  0.74905223    -0.25400
H1365       H  0.25598751  0.65380718  0.68678826     0.19600
S1366       S  0.16921176  0.55179577  0.69332032    -0.31100
H1367       H  0.19009717  0.56993352  0.75519200     0.09900
C1368       C  0.21562425  0.63064006  0.80474306     0.03100
C1369       C  0.21474428  0.63000185  0.83764119    -0.13400
C1370       C  0.22689042  0.61574868  0.85495858    -0.09000
C1371       C  0.24198353  0.60361894  0.83855378     0.06500
C1372       C  0.24200018  0.60345799  0.80565521    -0.14100
S1373       S  0.19879769  0.64825942  0.78346206    -0.31100
H1374       H  0.20339753  0.63960840  0.84983399     0.10800
S1375       S  0.26268075  0.58915619  0.85798571    -0.28200
H1376       H  0.25277129  0.59333188  0.79324294     0.08000
H1377       H  0.16071251  0.56554850  0.67060228     0.26500
H1378       H  0.19260800  0.66065213  0.80965350     0.21300
H1379       H  0.27231533  0.60969307  0.88279551     0.26600
H1380       H  0.28104642  0.65995376  0.77693766     0.15400
C1381       C  0.35258901  0.72373024  0.80523984    -0.11900
C1382       C  0.35646151  0.74836816  0.78826713     0.14700
C1383       C  0.35963919  0.77330948  0.80454824     0.01600
C1384       C  0.35893091  0.77314383  0.83728889    -0.16200
C1385       C  0.35626726  0.74902465  0.85426374    -0.11000
C1386       C  0.35252340  0.72382103  0.83808162     0.08300
C1387       C  0.35685377  0.74749979  0.75361065     0.09300
S1388       S  0.36561528  0.80628430  0.78483680    -0.25400
H1389       H  0.36161931  0.79246954  0.84967570     0.19600
S1390       S  0.34698450  0.69105908  0.85796784    -0.31100
H1391       H  0.34949229  0.70431886  0.79277340     0.09900
C1392       C  0.38174277  0.75102942  0.73718409     0.03100
C1393       C  0.38191607  0.75189072  0.70430032    -0.13400
C1394       C  0.35733912  0.74856909  0.68715636    -0.09000
C1395       C  0.33163797  0.74317155  0.70414456     0.06500
C1396       C  0.33212829  0.74362574  0.73695007    -0.14100
S1397       S  0.41397142  0.75611267  0.75818656    -0.31100
H1398       H  0.40174281  0.75599267  0.69203992     0.10800
S1399       S  0.29698146  0.73438224  0.68609418    -0.28200
H1400       H  0.31278899  0.74039556  0.74971493     0.08000
H1401       H  0.33270538  0.69420068  0.88440414     0.26500
H1402       H  0.42832658  0.75234417  0.73218592     0.21300
H1403       H  0.29735152  0.71375994  0.66510344     0.26600
H1404       H  0.38362970  0.80513211  0.76102507     0.15400
C1405       C  0.33805816  0.58560489  0.79925051    -0.11900
C1406       C  0.35325164  0.61374679  0.78573678     0.14700
C1407       C  0.36814245  0.63865913  0.80541656     0.01600
C1408       C  0.36851944  0.63483901  0.83787254    -0.16200
C1409       C  0.35395764  0.60660896  0.85167128    -0.11000
C1410       C  0.33838363  0.58162398  0.83183267     0.08300
C1411       C  0.35552037  0.61598962  0.75099044     0.09300
S1412       S  0.38790169  0.67584265  0.79044731    -0.25400
H1413       H  0.38048742  0.65426459  0.85248134     0.19600
S1414       S  0.32071050  0.54437848  0.84694182    -0.31100
H1415       H  0.32686081  0.56660597  0.78393829     0.09900
C1416       C  0.38144841  0.62103288  0.73542110     0.03100
C1417       C  0.38230837  0.62135517  0.70250483    -0.13400
C1418       C  0.35764429  0.61641293  0.68464063    -0.09000
C1419       C  0.33203361  0.61244293  0.70037368     0.06500
C1420       C  0.33111965  0.61188973  0.73327219    -0.14100
S1421       S  0.41292274  0.62542535  0.75748192    -0.31100
H1422       H  0.40186389  0.62421362  0.69059375     0.10800
S1423       S  0.30014965  0.60878558  0.67993330    -0.28200
H1424       H  0.31130595  0.60839612  0.74517901     0.08000
H1425       H  0.31298090  0.52955225  0.81793569     0.26500
H1426       H  0.43201297  0.63164543  0.73180073     0.21300
H1427       H  0.31604592  0.62666315  0.65440370     0.26600
H1428       H  0.37025452  0.67050288  0.76366308     0.15400
C1429       C  0.07345494  0.71429066  0.79934739    -0.11900
C1430       C  0.09976463  0.73607362  0.78574741     0.14700
C1431       C  0.12391069  0.75429814  0.80542119     0.01600
C1432       C  0.12206998  0.74874752  0.83774295    -0.16200
C1433       C  0.09598352  0.72635364  0.85131990    -0.11000
C1434       C  0.07122911  0.70926439  0.83170564     0.08300
C1435       C  0.10172918  0.73739365  0.75095714     0.09300
S1436       S  0.15721267  0.78551210  0.79090057    -0.25400
H1437       H  0.14081339  0.76269040  0.85256353     0.19600
S1438       S  0.03648542  0.67977974  0.84604071    -0.31100
H1439       H  0.05474953  0.70038608  0.78445491     0.09900
C1440       C  0.11886795  0.72781647  0.73460747     0.03100
C1441       C  0.11789792  0.72666111  0.70176069    -0.13400
C1442       C  0.10039520  0.73516727  0.68449922    -0.09000
C1443       C  0.08427087  0.74603601  0.70108341     0.06500
C1444       C  0.08440416  0.74608603  0.73393666    -0.14100
S1445       S  0.14069309  0.71537384  0.75554187    -0.31100
H1446       H  0.13033925  0.71827845  0.68952571     0.10800
S1447       S  0.06407373  0.76127478  0.68211179    -0.28200
H1448       H  0.07092277  0.75311535  0.74636509     0.08000
H1449       H  0.04906212  0.67011896  0.86893215     0.26500
H1450       H  0.15071545  0.70669891  0.72919663     0.21300
H1451       H  0.08578013  0.77643947  0.65911622     0.26600
H1452       H  0.14423233  0.79074068  0.76466918     0.15400
C1453       C  0.12943674  0.87467293  0.73398553    -0.11900
C1454       C  0.10293121  0.86115406  0.75117648     0.14700
C1455       C  0.07583144  0.84918355  0.73486136     0.01600
C1456       C  0.07577443  0.85105262  0.70217210    -0.16200
C1457       C  0.10216867  0.86532554  0.68481920    -0.11000
C1458       C  0.12937139  0.87656871  0.70107830     0.08300
C1459       C  0.10401214  0.86219536  0.78604881     0.09300
S1460       S  0.04040377  0.83210194  0.75428163    -0.25400
H1461       H  0.05470230  0.84225855  0.69027923     0.19600
S1462       S  0.16457086  0.89263754  0.68138972    -0.31100
H1463       H  0.15033083  0.88382742  0.74632528     0.09900
C1464       C  0.09508151  0.83681477  0.80463983     0.03100
C1465       C  0.09303354  0.83864507  0.83743489    -0.13400
C1466       C  0.09961765  0.86538183  0.85204207    -0.09000
C1467       C  0.10841103  0.89065879  0.83311439     0.06500
C1468       C  0.11117296  0.88892539  0.80068680    -0.14100
S1469       S  0.08622416  0.80216561  0.78658169    -0.31100
H1470       H  0.08638775  0.81927314  0.85175248     0.10800
S1471       S  0.11388768  0.92522657  0.84835708    -0.28200
H1472       H  0.11734220  0.90828644  0.78645957     0.08000
H1473       H  0.15402251  0.87361821  0.65529472     0.26500
H1474       H  0.08082784  0.78591636  0.81442740     0.21300
H1475       H  0.09011305  0.91215869  0.86955043     0.26600
H1476       H  0.04971685  0.84978157  0.78137545     0.15400
C1477       C  0.23975645  0.89242482  0.73801854    -0.11900
C1478       C  0.23488281  0.86649097  0.75271778     0.14700
C1479       C  0.23118880  0.84247084  0.73411399     0.01600
C1480       C  0.23257787  0.84513821  0.70144925    -0.16200
C1481       C  0.23804791  0.87131757  0.68637968    -0.11000
C1482       C  0.24188414  0.89548192  0.70529966     0.08300
C1483       C  0.23505805  0.86610090  0.78745806     0.09300
S1484       S  0.22512702  0.80783446  0.74989866    -0.25400
H1485       H  0.22956992  0.82638566  0.68768186     0.19600
S1486       S  0.25104693  0.93102464  0.68908239    -0.31100
H1487       H  0.24275688  0.91073949  0.75255952     0.09900
C1488       C  0.25909573  0.86782120  0.80426143     0.03100
C1489       C  0.25863497  0.86799176  0.83710057    -0.13400
C1490       C  0.23495103  0.86708545  0.85359008    -0.09000
C1491       C  0.21092461  0.86549825  0.83675824     0.06500
C1492       C  0.21138585  0.86534600  0.80389065    -0.14100
S1493       S  0.29072038  0.87057462  0.78392730    -0.31100
H1494       H  0.27709807  0.86942033  0.85010778     0.10800
S1495       S  0.17874962  0.86260394  0.85574094    -0.28200
H1496       H  0.19296359  0.86417591  0.79099158     0.08000
H1497       H  0.25466792  0.94614086  0.71751110     0.26500
H1498       H  0.30627313  0.87026409  0.81068790     0.21300
H1499       H  0.17940596  0.84629710  0.88156204     0.26600
H1500       H  0.22128297  0.81243793  0.78148722     0.15400
C1501       C  0.73256254  0.36733347  0.15107794     0.79700
N1502       N  0.73796223  0.34782651  0.13531313    -0.78600
C1503       C  0.74493935  0.35157688  0.10419326     0.82200
N1504       N  0.74659004  0.37502703  0.08866978    -0.78500
C1505       C  0.74032488  0.39401691  0.10400997     0.82300
N1506       N  0.73309958  0.38980312  0.13482431    -0.80200
C1507       C  0.73485072  0.36790443  0.38739770     0.79700
N1508       N  0.73852245  0.39226829  0.40287440    -0.78600
C1509       C  0.74565677  0.39599610  0.43392548     0.82200
N1510       N  0.74898993  0.37520781  0.44955521    -0.78500
C1511       C  0.74469263  0.35058896  0.43421163     0.82300
N1512       N  0.73777920  0.34717349  0.40330481    -0.80200
C1513       C  0.59684279  0.37048045  0.38674026     0.79700
N1514       N  0.61870149  0.39345169  0.40270086    -0.78600
C1515       C  0.61631722  0.39690936  0.43386648     0.82200
N1516       N  0.59204462  0.37675229  0.44967029    -0.78500
C1517       C  0.57059557  0.35281270  0.43426819     0.82300
N1518       N  0.57304405  0.34970858  0.40285032    -0.80200
C1519       C  0.59612861  0.36806511  0.15024254     0.79700
N1520       N  0.57252616  0.34667673  0.13460617    -0.78600
C1521       C  0.56859149  0.34941870  0.10366049     0.82200
N1522       N  0.58840214  0.37392602  0.08793840    -0.78500
C1523       C  0.61244450  0.39530592  0.10324294     0.82300
N1524       N  0.61626046  0.39232575  0.13433987    -0.80200
C1525       C  0.59906043  0.23199237  0.15085536     0.79700
N1526       N  0.57472592  0.22758579  0.13468220    -0.78600
C1527       C  0.57191799  0.22105519  0.10346910     0.82200
N1528       N  0.59344690  0.21856205  0.08829829    -0.78500
C1529       C  0.61796476  0.22329596  0.10415722     0.82300
N1530       N  0.62063602  0.23003543  0.13517467    -0.80200
C1531       C  0.59623803  0.22809635  0.38744240     0.79700
N1532       N  0.57291809  0.22685079  0.40279576    -0.78600
C1533       C  0.56988443  0.22220363  0.43425297     0.82200
N1534       N  0.59032809  0.21873167  0.45048639    -0.78500
C1535       C  0.61414930  0.22069114  0.43533298     0.82300
N1536       N  0.61706239  0.22547470  0.40385834    -0.80200
C1537       C  0.85538551  0.10792824  0.38632516     0.79700
N1538       N  0.87919148  0.12991635  0.40136305    -0.78600
C1539       C  0.88337249  0.12807729  0.43253584     0.82200
N1540       N  0.86355518  0.10414108  0.44901959    -0.78500
C1541       C  0.83925842  0.08256972  0.43435218     0.82300
N1542       N  0.83521382  0.08469012  0.40327196    -0.80200
C1543       C  0.85638931  0.11259856  0.15076052     0.79700
N1544       N  0.83449933  0.08854264  0.13604329    -0.78600
C1545       C  0.83661987  0.08381019  0.10504869     0.82200
N1546       N  0.86079773  0.10329469  0.08855381    -0.78500
C1547       C  0.88251419  0.12770104  0.10300329     0.82300
N1548       N  0.88028941  0.13218820  0.13404007    -0.80200
C1549       C  0.85976643  0.25373017  0.15004441     0.79700
N1550       N  0.88278177  0.25432877  0.13472372    -0.78600
C1551       C  0.88593721  0.25907278  0.10331091     0.82200
N1552       N  0.86571104  0.26278744  0.08702031    -0.78500
C1553       C  0.84213321  0.26126555  0.10219888     0.82300
N1554       N  0.83933981  0.25693740  0.13367198    -0.80200
C1555       C  0.85688823  0.24773484  0.38669689     0.79700
N1556       N  0.88077422  0.25161615  0.40321311    -0.78600
C1557       C  0.88331102  0.25770645  0.43441399     0.82200
N1558       N  0.86186291  0.26042254  0.44946019    -0.78500
C1559       C  0.83761502  0.25615599  0.43332334     0.82300
N1560       N  0.83522396  0.24971284  0.40221546    -0.80200
C1561       C  0.72290920  0.11378214  0.38759447     0.79700
N1562       N  0.71951655  0.08935346  0.40239213    -0.78600
C1563       C  0.71144434  0.08436067  0.43304451     0.82200
N1564       N  0.70652286  0.10391304  0.44920360    -0.78500
C1565       C  0.71019265  0.12863085  0.43473671     0.82300
N1566       N  0.71830398  0.13341264  0.40403417    -0.80200
C1567       C  0.71312591  0.10737735  0.15254856     0.79700
N1568       N  0.71263777  0.12982829  0.13709015    -0.78600
C1569       C  0.70721073  0.12792190  0.10570493     0.82200
N1570       N  0.70273070  0.10355357  0.08956881    -0.78500
C1571       C  0.70432076  0.08153746  0.10469549     0.82300
N1572       N  0.70960048  0.08361529  0.13604214    -0.80200
C1573       C  0.74893318  0.32930314  0.08723947     0.42000
N1574       N  0.74364787  0.28722827  0.07502895     0.00800
C1575       C  0.78265540  0.24201096  0.43896344    -0.07000
H1576       H  0.71432451  0.28576277  0.42078648     0.06300
C1577       C  0.63553955  0.20367067  0.48208553    -0.07400
Co1578     Co  0.77562519  0.28808746  0.01646088     0.74200
N1579       N  0.73698678  0.28165229  0.46090044    -0.26600
Co1580     Co  0.72447190  0.23742154  0.46170640     0.74100
C1581       C  0.63751797  0.21901555  0.45275033     0.42100
N1582       N  0.66797604  0.21245985  0.05662172     0.00500
N1583       N  0.68013043  0.22510165  0.46396939     0.00600
N1584       N  0.81525467  0.27298723  0.47513943    -0.47400
H1585       H  0.77706268  0.35115991  0.04317544     0.06300
N1586       N  0.75583446  0.30085535  0.48131553     0.00900
N1587       N  0.71220706  0.19325112  0.46368668     0.00600
C1588       C  0.70707580  0.15115215  0.45216739     0.42200
N1589       N  0.68711993  0.23061699  0.07754374    -0.26000
C1590       C  0.82042822  0.27776104  0.05576898    -0.06900
N1591       N  0.73679497  0.30106735  0.09652820    -0.47100
N1592       N  0.71919752  0.17927169  0.44254771    -0.47300
C1593       C  0.81857016  0.26226761  0.08483478     0.42000
N1594       N  0.78809223  0.26795457  0.48067227     0.00800
N1595       N  0.71867688  0.19850936  0.07752342    -0.26000
N1596       N  0.75997597  0.30466189  0.05209556    -0.26500
N1597       N  0.70015196  0.17951738  0.05673442     0.00500
H1598       H  0.73871143  0.19353394  0.11955209     0.06400
H1599       H  0.67867930  0.12959739  0.49616373     0.06400
N1600       N  0.76874191  0.24968658  0.46000764    -0.26600
N1601       N  0.66305943  0.20843551  0.48694808    -0.26200
N1602       N  0.77576848  0.25551004  0.07387677     0.00800
C1603       C  0.74494069  0.32625562  0.45067040     0.42200
C1604       C  0.67300929  0.23811138  0.09848233    -0.07400
N1605       N  0.69578439  0.17602176  0.48671459    -0.26200
H1606       H  0.61647410  0.19042434  0.49663939     0.06400
N1607       N  0.76124427  0.32814745  0.47609520    -0.47400
H1608       H  0.68292514  0.25236337  0.11858310     0.06400
C1609       C  0.70839478  0.15317572  0.08921979     0.42100
C1610       C  0.76424668  0.33190709  0.05757814    -0.06900
Co1611     Co  0.73139863  0.24296449  0.07638976     0.73800
N1612       N  0.64072242  0.20722608  0.06199533    -0.47100
C1613       C  0.81325037  0.25718132  0.44917310     0.42300
N1614       N  0.79038015  0.24913382  0.09475609    -0.47100
Co1615     Co  0.68207789  0.19396905  0.02156716     0.73900
C1616       C  0.69153837  0.14872716  0.48161700    -0.07400
C1617       C  0.72910330  0.29571322  0.44048860    -0.07000
N1618       N  0.79279284  0.27257853  0.05107429    -0.26500
N1619       N  0.66570659  0.23159091  0.44290038    -0.47300
H1620       H  0.77254519  0.22760909  0.41901246     0.06400
C1621       C  0.72491855  0.18389070  0.09908650    -0.07400
Cl1622     Cl  0.72893285  0.24089806  0.01899034    -0.50400
C1623       C  0.64249661  0.22283911  0.08805595     0.42100
H1624       H  0.83945505  0.29145502  0.04135393     0.06300
N1625       N  0.69347608  0.15194713  0.06279376    -0.47100
C1626       C  0.54533949  0.32978834  0.45155615     0.42000
N1627       N  0.00952274  0.28582735  0.46257655     0.00800
C1628       C  0.92468804  0.24237107  0.09754616    -0.07000
H1629       H  0.53422494  0.28470239  0.11801486     0.06300
C1630       C  0.53325904  0.20251090  0.05674767    -0.07400
Co1631     Co  0.97824644  0.28547807  0.02091674     0.74200
N1632       N  0.00975756  0.27987193  0.07639773    -0.26600
Co1633     Co  0.97729199  0.23596978  0.07544255     0.74100
C1634       C  0.54635197  0.21825156  0.08610555     0.42100
N1635       N  0.00902965  0.20992031  0.48006903     0.00500
N1636       N  0.00862377  0.22290710  0.07369129     0.00600
N1637       N  0.92437424  0.27380311  0.06127193    -0.47400
H1638       H  0.53871170  0.35146099  0.49561745     0.06300
N1639       N  0.01082776  0.29908928  0.05569761     0.00900
N1640       N  0.94473292  0.19204189  0.07354957     0.00600
C1641       C  0.90766549  0.15018379  0.08523893     0.42200
N1642       N  0.00864305  0.22847074  0.45936949    -0.26000
C1643       C  0.92211765  0.27546438  0.48087283    -0.06900
N1644       N  0.52955423  0.30152815  0.44199717    -0.47100
N1645       N  0.92385861  0.17838002  0.09478415    -0.47300
C1646       C  0.90867326  0.25995068  0.45156781     0.42000
N1647       N  0.94578397  0.26771870  0.05584034     0.00800
N1648       N  0.94502997  0.19737183  0.45918717    -0.26000
N1649       N  0.00991044  0.30292757  0.48560596    -0.26500
N1650       N  0.94406231  0.17822563  0.47994865     0.00500
H1651       H  0.91920021  0.19311904  0.41804029     0.06400
H1652       H  0.91411397  0.12798740  0.04149040     0.06400
N1653       N  0.94612098  0.24921816  0.07658444    -0.26600
N1654       N  0.00894348  0.20594623  0.05088049    -0.26200
N1655       N  0.94542694  0.25423035  0.46251433     0.00800
C1656       C  0.54409016  0.32467335  0.08747920     0.42200
C1657       C  0.53028243  0.23799688  0.43998004    -0.07400
N1658       N  0.94367467  0.17447194  0.05068683    -0.26200
H1659       H  0.53942860  0.18936275  0.04241587     0.06400
N1660       N  0.53016583  0.32598346  0.06137465    -0.47400
H1661       H  0.53489799  0.25236157  0.42002567     0.06400
C1662       C  0.90840147  0.15273872  0.44833497     0.42100
C1663       C  0.53260476  0.33220815  0.48119265    -0.06900
Co1664     Co  0.97720182  0.24152991  0.46041826     0.73800
N1665       N  0.53114240  0.20686648  0.47625737    -0.47100
C1666       C  0.91028516  0.25842103  0.08722497     0.42300
N1667       N  0.92433182  0.24746667  0.44157242    -0.47100
Co1668     Co  0.97610047  0.19063898  0.01548347     0.73900
C1669       C  0.92051238  0.14733481  0.05586485    -0.07400
C1670       C  0.52968560  0.29423583  0.09778462    -0.07000
N1671       N  0.94497324  0.27087605  0.48559530    -0.26500
N1672       N  0.53042120  0.23061598  0.09552118    -0.47300
H1673       H  0.92000316  0.22812448  0.11762582     0.06400
C1674       C  0.92349005  0.18324685  0.43811644    -0.07400
Cl1675     Cl  0.97718733  0.23809236  0.01811857    -0.50400
C1676       C  0.54525771  0.22248582  0.45040241     0.42100
H1677       H  0.91620658  0.28858903  0.49557788     0.06300
N1678       N  0.92215431  0.15100509  0.47438920    -0.47100
C1679       C  0.74824212  0.42170461  0.45068974     0.42000
N1680       N  0.74209034  0.45804633  0.46234898     0.00800
C1681       C  0.78146735  0.04324815  0.09984459    -0.07000
H1682       H  0.71101041  0.42979709  0.11833039     0.06300
C1683       C  0.63299063  0.43395396  0.05680874    -0.07400
Co1684     Co  0.77096814  0.48822501  0.02271090     0.74200
N1685       N  0.73367744  0.45643682  0.07809334    -0.26600
Co1686     Co  0.72185848  0.48884720  0.07703172     0.74100
C1687       C  0.63524165  0.42081899  0.08620345     0.42100
N1688       N  0.66661206  0.45809195  0.48075589     0.00500
N1689       N  0.67759455  0.45731962  0.07487288     0.00600
N1690       N  0.81366946  0.04484107  0.06320194    -0.47400
H1691       H  0.77714590  0.42924068  0.49438565     0.06300
N1692       N  0.75199982  0.45551773  0.05739951     0.00900
N1693       N  0.70984248  0.02073329  0.07576179     0.00600
C1694       C  0.70280430  0.05658219  0.08729517     0.42200
N1695       N  0.68558295  0.45856013  0.45996894    -0.26000
C1696       C  0.81852808  0.04479099  0.48121457    -0.06900
N1697       N  0.73544859  0.43716405  0.44110465    -0.47100
N1698       N  0.71598823  0.04150826  0.09697830    -0.47300
C1699       C  0.81629299  0.05777053  0.45181104     0.42000
N1700       N  0.78641520  0.02290338  0.05771077     0.00800
N1701       N  0.71747716  0.02186838  0.45958560    -0.26000
N1702       N  0.75890681  0.45759357  0.48516695    -0.26500
N1703       N  0.69928318  0.02306641  0.48025569     0.00500
H1704       H  0.73946374  0.04750053  0.41858826     0.06400
H1705       H  0.67390423  0.04852379  0.04347926     0.06400
N1706       N  0.76728496  0.02179166  0.07869046    -0.26600
N1707       N  0.66042607  0.45674386  0.05185842    -0.26200
N1708       N  0.77388082  0.02146787  0.46307261     0.00800
C1709       C  0.74056196  0.41886528  0.08787984     0.42200
C1710       C  0.67129112  0.43668145  0.43939442    -0.07400
N1711       N  0.69293333  0.02085496  0.05283014    -0.26200
H1712       H  0.61385852  0.42791906  0.04223377     0.06400
N1713       N  0.75675705  0.43316467  0.06238352    -0.47400
H1714       H  0.68104065  0.43193546  0.41944972     0.06400
C1715       C  0.70990963  0.05871219  0.44862216     0.42100
C1716       C  0.76374813  0.43498963  0.48001807    -0.06900
Co1717     Co  0.72988992  0.49016568  0.46063710     0.73800
N1718       N  0.63926998  0.43610626  0.47566956    -0.47100
C1719       C  0.81199316  0.05848841  0.08944540     0.42300
N1720       N  0.78814897  0.04216818  0.44190300    -0.47100
Co1721     Co  0.67754856  0.48916348  0.01669077     0.73900
C1722       C  0.68755173  0.04314347  0.05789805    -0.07400
C1723       C  0.72554595  0.43434834  0.09848784    -0.07000
N1724       N  0.79105244  0.02216741  0.48613367    -0.26500
N1725       N  0.66341272  0.43646760  0.09595669    -0.47300
H1726       H  0.77162416  0.04738008  0.12012679     0.06400
C1727       C  0.72511419  0.04332178  0.43851976    -0.07400
Cl1728     Cl  0.72433017  0.48882094  0.01971767    -0.50400
C1729       C  0.64088542  0.42177234  0.44996463     0.42100
H1730       H  0.83763629  0.05072063  0.49578070     0.06300
N1731       N  0.69424561  0.04513875  0.47466014    -0.47100
C1732       C  0.70788624  0.08799395  0.23939845    -0.11900
C1733       C  0.72977172  0.11478102  0.25224167     0.14700
C1734       C  0.74683911  0.13870014  0.23204627     0.01600
C1735       C  0.74075498  0.13579815  0.19980529    -0.16200
C1736       C  0.71834224  0.10920699  0.18692678    -0.11000
C1737       C  0.70177861  0.08500005  0.20718697     0.08300
C1738       C  0.73135466  0.11799917  0.28690291     0.05700
S1739       S  0.77618690  0.17360989  0.24613119    -0.25400
H1740       H  0.75387147  0.15440687  0.18457391     0.19600
S1741       S  0.67107537  0.05045310  0.19399158    -0.31100
H1742       H  0.69442504  0.06969357  0.25484766     0.09900
C1743       C  0.71629269  0.13031375  0.30255398     0.03100
C1744       C  0.71518112  0.12997340  0.33543315    -0.13400
C1745       C  0.72896735  0.11767223  0.35326113    -0.09000
C1746       C  0.74586098  0.10723232  0.33740721     0.06500
C1747       C  0.74632305  0.10693057  0.30449802    -0.14100
S1748       S  0.69703098  0.14501018  0.28054673    -0.31100
H1749       H  0.70231701  0.13811238  0.34722451     0.10800
S1750       S  0.76796609  0.09480581  0.35759512    -0.28200
H1751       H  0.75846612  0.09804791  0.29249064     0.08000
H1752       H  0.66077152  0.06320206  0.17199735     0.26500
H1753       H  0.68902559  0.15631052  0.30633063     0.21300
H1754       H  0.77547385  0.11472591  0.38278631     0.26600
H1755       H  0.78380603  0.16223076  0.27202592     0.15400
C1756       C  0.87659507  0.24331804  0.30096274    -0.11900
C1757       C  0.85481598  0.24647923  0.28518922     0.14700
C1758       C  0.83191890  0.24653453  0.30275490     0.01600
C1759       C  0.83273233  0.24583147  0.33552830    -0.16200
C1760       C  0.85534347  0.24409404  0.35173013    -0.11000
C1761       C  0.87670626  0.24128454  0.33370531     0.08300
C1762       C  0.85638308  0.24889025  0.25048289     0.09300
S1763       S  0.80100845  0.24770398  0.28527020    -0.25400
H1764       H  0.81554501  0.24710387  0.34839831     0.19600
S1765       S  0.90425408  0.23421460  0.35034531    -0.31100
H1766       H  0.89363682  0.24223342  0.28754230     0.09900
C1767       C  0.86106577  0.27465439  0.23487584     0.03100
C1768       C  0.86120109  0.27523957  0.20199013    -0.13400
C1769       C  0.85767084  0.25098629  0.18440525    -0.09000
C1770       C  0.85369446  0.22551354  0.20002863     0.06500
C1771       C  0.85320066  0.22479475  0.23281659    -0.14100
S1772       S  0.86820246  0.30723018  0.25668301    -0.31100
H1773       H  0.86490789  0.29495761  0.18984448     0.10800
S1774       S  0.84854905  0.19307605  0.17952944    -0.28200
H1775       H  0.84969282  0.20503378  0.24470425     0.08000
H1776       H  0.88396427  0.21161753  0.37009850     0.26500
H1777       H  0.86766837  0.32367683  0.23091538     0.21300
H1778       H  0.83369241  0.19613331  0.15361349     0.26600
H1779       H  0.80304006  0.23817334  0.25509652     0.15400
C1780       C  0.83639626  0.08750318  0.29982403    -0.11900
C1781       C  0.85173390  0.11538971  0.28587664     0.14700
C1782       C  0.86577627  0.14071396  0.30504939     0.01600
C1783       C  0.86615500  0.13752240  0.33755061    -0.16200
C1784       C  0.85190661  0.10952538  0.35180098    -0.11000
C1785       C  0.83596594  0.08413501  0.33248898     0.08300
C1786       C  0.85381201  0.11703710  0.25124614     0.09300
S1787       S  0.88391777  0.17765337  0.28941945    -0.25400
H1788       H  0.87772273  0.15724302  0.35184034     0.19600
S1789       S  0.81613017  0.04711524  0.34828838    -0.31100
H1790       H  0.82539723  0.06823907  0.28481949     0.09900
C1791       C  0.88034006  0.12413404  0.23562622     0.03100
C1792       C  0.88083681  0.12380234  0.20275069    -0.13400
C1793       C  0.85530826  0.11629556  0.18510199    -0.09000
C1794       C  0.82910522  0.11042086  0.20091989     0.06500
C1795       C  0.82854425  0.11041705  0.23372877    -0.14100
S1796       S  0.91313942  0.13209356  0.25752203    -0.31100
H1797       H  0.90089653  0.12823280  0.19073228     0.10800
S1798       S  0.79598217  0.10373983  0.18076317    -0.28200
H1799       H  0.80829612  0.10544754  0.24576376     0.08000
H1800       H  0.80438751  0.03203251  0.31988730     0.26500
H1801       H  0.93193284  0.13815011  0.23159248     0.21300
H1802       H  0.81068860  0.12197981  0.15502666     0.26600
H1803       H  0.86712978  0.17091591  0.26179200     0.15400
C1804       C  0.58616666  0.20953188  0.30062057    -0.11900
C1805       C  0.60228455  0.23760988  0.28700651     0.14700
C1806       C  0.61632970  0.26270977  0.30680640     0.01600
C1807       C  0.61389083  0.25900706  0.33949533    -0.16200
C1808       C  0.59816470  0.23083679  0.35296092    -0.11000
C1809       C  0.58414858  0.20583479  0.33319101     0.08300
C1810       C  0.60395202  0.23930216  0.25218592     0.09300
S1811       S  0.63791582  0.29997529  0.29235953    -0.25400
H1812       H  0.62455980  0.27826069  0.35458352     0.19600
S1813       S  0.56289469  0.16860510  0.34784081    -0.31100
H1814       H  0.57527290  0.19021976  0.28563013     0.09900
C1815       C  0.62087495  0.22977196  0.23540021     0.03100
C1816       C  0.61927815  0.22828463  0.20255034    -0.13400
C1817       C  0.60162519  0.23684808  0.18561993    -0.09000
C1818       C  0.58641539  0.24853969  0.20264087     0.06500
C1819       C  0.58714408  0.24888278  0.23557617    -0.14100
S1820       S  0.64441820  0.21921677  0.25586611    -0.31100
H1821       H  0.63136402  0.21962248  0.19011462     0.10800
S1822       S  0.56677716  0.26455455  0.18407302    -0.28200
H1823       H  0.57453466  0.25673925  0.24839073     0.08000
H1824       H  0.57805697  0.17319318  0.37631420     0.26500
H1825       H  0.65978350  0.21803840  0.22932293     0.21300
H1826       H  0.58788133  0.27849419  0.16023287     0.26600
H1827       H  0.64216686  0.29333207  0.26160460     0.15400
C1828       C  0.62466240  0.37411366  0.23398566    -0.11900
C1829       C  0.59828332  0.36353200  0.25106232     0.14700
C1830       C  0.57149365  0.35397906  0.23469018     0.01600
C1831       C  0.57159824  0.35462983  0.20194546    -0.16200
C1832       C  0.59796267  0.36570791  0.18474400    -0.11000
C1833       C  0.62478221  0.37510149  0.20110088     0.08300
C1834       C  0.59963299  0.36448769  0.28583869     0.09300
S1835       S  0.53649445  0.34186985  0.25392717    -0.25400
H1836       H  0.55090042  0.34758958  0.18981172     0.19600
S1837       S  0.65961717  0.38757649  0.18155597    -0.31100
H1838       H  0.64529065  0.38152411  0.24640174     0.09900
C1839       C  0.58676421  0.33871793  0.30433576     0.03100
C1840       C  0.58641784  0.34117050  0.33718778    -0.13400
C1841       C  0.59848551  0.36891634  0.35197727    -0.09000
C1842       C  0.61154627  0.39465301  0.33305922     0.06500
C1843       C  0.61247586  0.39210577  0.30052257    -0.14100
S1844       S  0.57066028  0.30278249  0.28606803    -0.31100
H1845       H  0.57663067  0.32142311  0.35139898     0.10800
S1846       S  0.62523138  0.43141764  0.34830992    -0.28200
H1847       H  0.62198596  0.41189884  0.28630919     0.08000
H1848       H  0.64760325  0.36791421  0.15611563     0.26500
H1849       H  0.56121188  0.28613740  0.31380416     0.21300
H1850       H  0.60094377  0.42320902  0.36834032     0.26600
H1851       H  0.54787342  0.35908229  0.28115243     0.15400
C1852       C  0.72913539  0.38579179  0.23764577    -0.11900
C1853       C  0.72225411  0.35920373  0.25223251     0.14700
C1854       C  0.71585084  0.33443259  0.23332880     0.01600
C1855       C  0.71888279  0.33763422  0.20062969    -0.16200
C1856       C  0.72733352  0.36479344  0.18584984    -0.11000
C1857       C  0.73159677  0.38900976  0.20497759     0.08300
C1858       C  0.72412603  0.35923850  0.28707835     0.09300
S1859       S  0.70395604  0.29819606  0.24915898    -0.25400
H1860       H  0.71464682  0.31860012  0.18661171     0.19600
S1861       S  0.74227569  0.42510207  0.18929233    -0.31100
H1862       H  0.73391113  0.40465850  0.25223498     0.09900
C1863       C  0.74598854  0.35556975  0.30245361     0.03100
C1864       C  0.74818462  0.35767098  0.33521929    -0.13400
C1865       C  0.72979558  0.36446880  0.35312036    -0.09000
C1866       C  0.70795494  0.36824068  0.33776459     0.06500
C1867       C  0.70553850  0.36581779  0.30499703    -0.14100
S1868       S  0.77277282  0.35065476  0.28040815    -0.31100
H1869       H  0.76520377  0.35521724  0.34694945     0.10800
S1870       S  0.68215311  0.37549098  0.35852177    -0.28200
H1871       H  0.68896226  0.36905034  0.29330056     0.08000
H1872       H  0.73647683  0.43682455  0.21631869     0.26500
H1873       H  0.78569758  0.34457830  0.30612610     0.21300
H1874       H  0.68045084  0.35925696  0.38543117     0.26600
H1875       H  0.69577115  0.30288036  0.27901882     0.15400
C1876       C  0.74262139  0.37341114  0.65033901     0.79700
N1877       N  0.74548071  0.35234470  0.63447920    -0.78600
C1878       C  0.74928073  0.35403194  0.60279711     0.82200
N1879       N  0.75028082  0.37691829  0.58676727    -0.78500
C1880       C  0.74636327  0.39735361  0.60230863     0.82300
N1881       N  0.74225853  0.39524008  0.63374232    -0.80200
C1882       C  0.74045562  0.37209676  0.88745764     0.79700
N1883       N  0.74084072  0.39448583  0.90403794    -0.78600
C1884       C  0.74446694  0.39590126  0.93569504     0.82200
N1885       N  0.74753086  0.37477367  0.95084416    -0.78500
C1886       C  0.74633090  0.35195742  0.93440764     0.82300
N1887       N  0.74294374  0.35079216  0.90281653    -0.80200
C1888       C  0.59409074  0.37008932  0.88653343     0.79700
N1889       N  0.61543215  0.39351278  0.90246371    -0.78600
C1890       C  0.61350331  0.39595573  0.93389772     0.82200
N1891       N  0.59007197  0.37461609  0.94978923    -0.78500
C1892       C  0.56908924  0.35045891  0.93423584     0.82300
N1893       N  0.57119384  0.34815510  0.90261788    -0.80200
C1894       C  0.60020393  0.37127805  0.64996091     0.79700
N1895       N  0.57670258  0.34954412  0.63436379    -0.78600
C1896       C  0.57274174  0.35190084  0.60329788     0.82200
N1897       N  0.59256019  0.37625121  0.58737821    -0.78500
C1898       C  0.61655694  0.39782038  0.60255710     0.82300
N1899       N  0.62023280  0.39535353  0.63377534    -0.80200
C1900       C  0.59857030  0.23416819  0.65005641     0.79700
N1901       N  0.57393803  0.22914947  0.63416459    -0.78600
C1902       C  0.57056236  0.22173963  0.60321184     0.82200
N1903       N  0.59185775  0.21885540  0.58796085    -0.78500
C1904       C  0.61671379  0.22414439  0.60358917     0.82300
N1905       N  0.61991112  0.23184961  0.63435029    -0.80200
C1906       C  0.59585984  0.22481387  0.88592788     0.79700
N1907       N  0.57243216  0.22280835  0.90174197    -0.78600
C1908       C  0.57012250  0.21868797  0.93322031     0.82200
N1909       N  0.59143129  0.21652489  0.94915402    -0.78500
C1910       C  0.61546370  0.21936644  0.93369128     0.82300
N1911       N  0.61778420  0.22379502  0.90208855    -0.80200
C1912       C  0.85279697  0.10872301  0.88647992     0.79700
N1913       N  0.87723123  0.12997489  0.90150147    -0.78600
C1914       C  0.88165361  0.12767401  0.93257626     0.82200
N1915       N  0.86134608  0.10394731  0.94900268    -0.78500
C1916       C  0.83638859  0.08304571  0.93456403     0.82300
N1917       N  0.83218262  0.08564119  0.90350762    -0.80200
C1918       C  0.85548702  0.11321007  0.64959321     0.79700
N1919       N  0.83444376  0.08875427  0.63463697    -0.78600
C1920       C  0.83756064  0.08385040  0.60391098     0.82200
N1921       N  0.86187528  0.10353738  0.58784263    -0.78500
C1922       C  0.88280587  0.12831236  0.60241673     0.82300
N1923       N  0.87961845  0.13301948  0.63321620    -0.80200
C1924       C  0.85853721  0.25309403  0.65023257     0.79700
N1925       N  0.88184044  0.25414238  0.63498000    -0.78600
C1926       C  0.88500560  0.25887014  0.60352320     0.82200
N1927       N  0.86448496  0.26208132  0.58717622    -0.78500
C1928       C  0.84065916  0.26012068  0.60226005     0.82300
N1929       N  0.83787511  0.25582842  0.63373948    -0.80200
C1930       C  0.85922612  0.25126784  0.88674599     0.79700
N1931       N  0.88289641  0.25441788  0.90313838    -0.78600
C1932       C  0.88563059  0.26043325  0.93437378     0.82200
N1933       N  0.86456305  0.26364879  0.94960825    -0.78500
C1934       C  0.84055721  0.26010873  0.93357290     0.82300
N1935       N  0.83799780  0.25381394  0.90244864    -0.80200
C1936       C  0.72007508  0.11045421  0.88834587     0.79700
N1937       N  0.71527147  0.08587379  0.90388200    -0.78600
C1938       C  0.70793515  0.08212476  0.93474642     0.82200
N1939       N  0.70509845  0.10317342  0.95046753    -0.78500
C1940       C  0.71012138  0.12810725  0.93530519     0.82300
N1941       N  0.71757394  0.13164471  0.90436134    -0.80200
C1942       C  0.71567276  0.10838146  0.65185641     0.79700
N1943       N  0.71430734  0.13065685  0.63702352    -0.78600
C1944       C  0.70905521  0.12916624  0.60558186     0.82200
N1945       N  0.70572490  0.10556290  0.58884976    -0.78500
C1946       C  0.70817289  0.08380773  0.60333908     0.82300
N1947       N  0.71302500  0.08523883  0.63477594    -0.80200
C1948       C  0.75067471  0.33033093  0.58589575     0.42000
N1949       N  0.74299653  0.28729979  0.57420827     0.00800
C1950       C  0.78540290  0.24449826  0.93946655    -0.07000
H1951       H  0.71711977  0.28710375  0.91973049     0.06300
C1952       C  0.63745684  0.20391780  0.98091234    -0.07400
Co1953     Co  0.77446023  0.28670399  0.51584007     0.74200
N1954       N  0.73872046  0.28283198  0.96077021    -0.26600
Co1955     Co  0.72662861  0.23861905  0.96155420     0.74100
C1956       C  0.63932153  0.21869317  0.95122221     0.42100
N1957       N  0.66644203  0.21201127  0.55691615     0.00500
N1958       N  0.68217661  0.22589638  0.96322021     0.00600
N1959       N  0.81752928  0.27596127  0.97569868    -0.47400
H1960       H  0.77904591  0.35082960  0.54175301     0.06300
N1961       N  0.75686717  0.30195923  0.98171938     0.00900
N1962       N  0.71456573  0.19427705  0.96353623     0.00600
C1963       C  0.70850855  0.15169965  0.95234477     0.42200
N1964       N  0.68575132  0.23071244  0.57738535    -0.26000
C1965       C  0.81887371  0.27590620  0.55529879    -0.06900
N1966       N  0.73734544  0.30212355  0.59565221    -0.47100
N1967       N  0.72121762  0.17987557  0.94249352    -0.47300
C1968       C  0.81702378  0.26097611  0.58477730     0.42000
N1969       N  0.79008818  0.27012033  0.98122498     0.00800
N1970       N  0.71728325  0.19849984  0.57797406    -0.26000
N1971       N  0.75969932  0.30414891  0.55113035    -0.26500
N1972       N  0.69887941  0.17920792  0.55732337     0.00500
H1973       H  0.73860489  0.19452401  0.61945980     0.06400
H1974       H  0.67969137  0.13069741  0.99610112     0.06400
N1975       N  0.77103764  0.25156467  0.96050446    -0.26600
N1976       N  0.66509804  0.20932642  0.98625155    -0.26200
N1977       N  0.77439972  0.25481864  0.57386872     0.00800
C1978       C  0.74658435  0.32741922  0.95042046     0.42200
C1979       C  0.67175016  0.23880502  0.59784351    -0.07400
N1980       N  0.69781020  0.17717176  0.98646959    -0.26200
H1981       H  0.61832216  0.19033453  0.99522882     0.06400
N1982       N  0.76213695  0.32918339  0.97645406    -0.47400
H1983       H  0.68178472  0.25358037  0.61753138     0.06400
C1984       C  0.70853160  0.15376647  0.58963898     0.42100
C1985       C  0.76540768  0.33188718  0.55624830    -0.06900
Co1986     Co  0.73009521  0.24284679  0.57631877     0.73800
N1987       N  0.63922544  0.20700492  0.56211128    -0.47100
C1988       C  0.81596705  0.26042165  0.94966199     0.42300
N1989       N  0.78893732  0.24853869  0.59496897    -0.47100
Co1990     Co  0.68030935  0.19311837  0.52205277     0.73900
C1991       C  0.69302910  0.14971630  0.98159242    -0.07400
C1992       C  0.73128647  0.29696037  0.93988356    -0.07000
N1993       N  0.79138457  0.27114454  0.55064607    -0.26500
N1994       N  0.66762478  0.23172457  0.94163651    -0.47300
H1995       H  0.77562009  0.23017231  0.91939181     0.06400
C1996       C  0.72434754  0.18445094  0.59941189    -0.07400
Cl1997     Cl  0.72732231  0.23999763  0.51899485    -0.50400
C1998       C  0.64114724  0.22333260  0.58758789     0.42100
H1999       H  0.83786173  0.28909013  0.54062973     0.06300
N2000       N  0.69315038  0.15192640  0.56334423    -0.47100
C2001       C  0.54452595  0.32661993  0.95153651     0.42000
N2002       N  0.00976958  0.28458733  0.96270724     0.00800
C2003       C  0.92428281  0.24274398  0.59743060    -0.07000
H2004       H  0.53671180  0.28707179  0.61766477     0.06300
C2005       C  0.53153460  0.20378317  0.55674671    -0.07400
Co2006     Co  0.97754998  0.28619836  0.52063584     0.74200
N2007       N  0.00944855  0.28057943  0.57578355    -0.26600
Co2008     Co  0.97706519  0.23672813  0.57496624     0.74100
C2009       C  0.54486933  0.21904707  0.58624155     0.42100
N2010       N  0.00850907  0.20833420  0.98036220     0.00500
N2011       N  0.00847996  0.22374738  0.57322777     0.00600
N2012       N  0.92355149  0.27405883  0.56132281    -0.47400
H2013       H  0.53649758  0.34759049  0.99530109     0.06300
N2014       N  0.01032909  0.29988712  0.55533205     0.00900
N2015       N  0.94474666  0.19283901  0.57299255     0.00600
C2016       C  0.90809008  0.15082933  0.58485761     0.42200
N2017       N  0.00814354  0.22685929  0.95961943    -0.26000
C2018       C  0.92380510  0.27640427  0.98103342    -0.06900
N2019       N  0.52944781  0.29836274  0.94175693    -0.47100
N2020       N  0.92396674  0.17906563  0.59428022    -0.47300
C2021       C  0.91033748  0.26137962  0.95158552     0.42000
N2022       N  0.94508480  0.26817472  0.55566571     0.00800
N2023       N  0.94452852  0.19628655  0.95959567    -0.26000
N2024       N  0.01047465  0.30179941  0.98579426    -0.26500
N2025       N  0.94332531  0.17694826  0.98025755     0.00500
H2026       H  0.91888440  0.19260182  0.91849247     0.06400
H2027       H  0.91483810  0.12874352  0.54114888     0.06400
N2028       N  0.94566772  0.24974515  0.57632814    -0.26600
N2029       N  0.00898037  0.20696912  0.55035100    -0.26200
N2030       N  0.94577510  0.25371135  0.96291777     0.00800
C2031       C  0.54756974  0.32743178  0.58733839     0.42200
C2032       C  0.53079403  0.23456677  0.93945952    -0.07400
N2033       N  0.94392927  0.17534791  0.55016438    -0.26200
H2034       H  0.53714859  0.19031553  0.54223325     0.06400
N2035       N  0.53330663  0.32932315  0.56176748    -0.47400
H2036       H  0.53502115  0.24856030  0.91924723     0.06400
C2037       C  0.90744054  0.15187239  0.94840869     0.42100
C2038       C  0.53112485  0.32850631  0.98089777    -0.06900
Co2039     Co  0.97707759  0.24037172  0.96076373     0.73800
N2040       N  0.53200434  0.20364461  0.97579245    -0.47100
C2041       C  0.90963313  0.25864200  0.58736017     0.42300
N2042       N  0.92510805  0.24790363  0.94171121    -0.47100
Co2043     Co  0.97649452  0.19187882  0.51503051     0.73900
C2044       C  0.92101146  0.14809214  0.55544795    -0.07400
C2045       C  0.53216244  0.29701009  0.59781412    -0.07000
N2046       N  0.94582277  0.27063126  0.98596450    -0.26500
N2047       N  0.52962118  0.23207800  0.59586180    -0.47300
H2048       H  0.91977416  0.22848147  0.61745829     0.06400
C2049       C  0.92296062  0.18246060  0.93846460    -0.07400
Cl2050     Cl  0.97707127  0.23906387  0.51772827    -0.50400
C2051       C  0.54577929  0.21905285  0.94973300     0.42100
H2052       H  0.91867072  0.29022718  0.99554773     0.06300
N2053       N  0.92108654  0.14984640  0.97452066    -0.47100
C2054       C  0.74479914  0.42008085  0.95333551     0.42000
N2055       N  0.73888684  0.45661113  0.96446673     0.00800
C2056       C  0.78299490  0.04343711  0.59791548    -0.07000
H2057       H  0.71603688  0.43207255  0.61661027     0.06300
C2058       C  0.63690130  0.43621883  0.55605686    -0.07400
Co2059     Co  0.77470379  0.48999051  0.52033110     0.74200
N2060       N  0.73787243  0.45830779  0.57588787    -0.26600
Co2061     Co  0.72601226  0.49058414  0.57515236     0.74100
C2062       C  0.63934669  0.42310224  0.58533151     0.42100
N2063       N  0.66339864  0.45655194  0.98170344     0.00500
N2064       N  0.68173377  0.45921213  0.57350209     0.00600
N2065       N  0.81555724  0.04460783  0.56198889    -0.47400
H2066       H  0.77309530  0.42734678  0.99742607     0.06300
N2067       N  0.75611279  0.45746985  0.55502170     0.00900
N2068       N  0.71313978  0.02308342  0.57346959     0.00600
C2069       C  0.70710891  0.05945915  0.58519975     0.42200
N2070       N  0.68258713  0.45726833  0.96106519    -0.26000
C2071       C  0.81608158  0.04546654  0.98195614    -0.06900
N2072       N  0.73244972  0.43578757  0.94321483    -0.47100
N2073       N  0.71962420  0.04378570  0.59484654    -0.47300
C2074       C  0.81341418  0.05813483  0.95241845     0.42000
N2075       N  0.78828852  0.02276349  0.55622450     0.00800
N2076       N  0.71410079  0.02008522  0.96184161    -0.26000
N2077       N  0.75528365  0.45594000  0.98761224    -0.26500
N2078       N  0.69575665  0.02097208  0.98253478     0.00500
H2079       H  0.73608495  0.04584467  0.92105043     0.06400
H2080       H  0.67847198  0.05225419  0.54131265     0.06400
N2081       N  0.76906457  0.02202212  0.57679317    -0.26600
N2082       N  0.66437058  0.45876724  0.55079405    -0.26200
N2083       N  0.77127845  0.02137898  0.96443884     0.00800
C2084       C  0.74543538  0.42127394  0.58572797     0.42200
C2085       C  0.66847087  0.43571427  0.94007772    -0.07400
N2086       N  0.69657254  0.02374472  0.55047676    -0.26200
H2087       H  0.61763399  0.43035656  0.54176592     0.06400
N2088       N  0.76129619  0.43543209  0.56004741    -0.47400
H2089       H  0.67841249  0.43122659  0.92013274     0.06400
C2090       C  0.70622622  0.05663978  0.95093344     0.42100
C2091       C  0.75991471  0.43318793  0.98281812    -0.06900
Co2092     Co  0.72691410  0.48885510  0.96244162     0.73800
N2093       N  0.63609232  0.43469259  0.97616254    -0.47100
C2094       C  0.81353770  0.05833732  0.58805163     0.42300
N2095       N  0.78512550  0.04199817  0.94296726    -0.47100
Co2096     Co  0.68123333  0.49095520  0.51554967     0.73900
C2097       C  0.69186296  0.04645625  0.55563572    -0.07400
C2098       C  0.73022993  0.43649195  0.59647051    -0.07000
N2099       N  0.78881291  0.02255575  0.98734922    -0.26500
N2100       N  0.66764378  0.43851141  0.59474820    -0.47300
H2101       H  0.77289954  0.04783751  0.61777608     0.06400
C2102       C  0.72160134  0.04149423  0.94088494    -0.07400
Cl2103     Cl  0.72796482  0.49044937  0.51789780    -0.50400
C2104       C  0.63793139  0.42073956  0.95025289     0.42100
H2105       H  0.83543485  0.05174693  0.99623707     0.06300
N2106       N  0.69050898  0.04296204  0.97699049    -0.47100
C2107       C  0.70203397  0.08713070  0.73819792    -0.11900
C2108       C  0.72690396  0.11067139  0.75237938     0.14700
C2109       C  0.74853454  0.13303246  0.73320047     0.01600
C2110       C  0.74422083  0.13207008  0.70060728    -0.16200
C2111       C  0.71905315  0.10876294  0.68644628    -0.11000
C2112       C  0.69779249  0.08599181  0.70564599     0.08300
C2113       C  0.72777495  0.11286756  0.78721967     0.05700
S2114       S  0.78167277  0.16365143  0.74906012    -0.25400
H2115       H  0.76082863  0.14946872  0.68612643     0.19600
S2116       S  0.66397628  0.05568451  0.69034798    -0.31100
H2117       H  0.68518156  0.07007027  0.75277384     0.09900
C2118       C  0.71589772  0.12830241  0.80293985     0.03100
C2119       C  0.71505370  0.12833548  0.83586137    -0.13400
C2120       C  0.72565267  0.11302702  0.85377833    -0.09000
C2121       C  0.73885831  0.09865058  0.83777799     0.06500
C2122       C  0.73926939  0.09832225  0.80484490    -0.14100
S2123       S  0.70045373  0.14683021  0.78091469    -0.31100
H2124       H  0.70489365  0.13935541  0.84763868     0.10800
S2125       S  0.75633126  0.08100359  0.85765396    -0.28200
H2126       H  0.74881244  0.08678908  0.79281736     0.08000
H2127       H  0.66050635  0.07162364  0.66585507     0.26500
H2128       H  0.69307542  0.15860138  0.80676753     0.21300
H2129       H  0.76824449  0.10203175  0.88193612     0.26600
H2130       H  0.78427313  0.14844512  0.77482742     0.15400
C2131       C  0.87601906  0.24388563  0.80056472    -0.11900
C2132       C  0.85250993  0.24440125  0.78542418     0.14700
C2133       C  0.82970312  0.24383545  0.80370145     0.01600
C2134       C  0.83228174  0.24534629  0.83641310    -0.16200
C2135       C  0.85662015  0.24631199  0.85193137    -0.11000
C2136       C  0.87804365  0.24411897  0.83331913     0.08300
C2137       C  0.85322392  0.24656513  0.75068861     0.09300
S2138       S  0.79685930  0.24157354  0.78699641    -0.25400
H2139       H  0.81500371  0.24604313  0.84974202     0.19600
S2140       S  0.90851065  0.24134576  0.84914575    -0.31100
H2141       H  0.89318951  0.24354842  0.78662462     0.09900
C2142       C  0.85710853  0.27214623  0.73537085     0.03100
C2143       C  0.85820682  0.27340429  0.70250846    -0.13400
C2144       C  0.85597670  0.24983077  0.68460231    -0.09000
C2145       C  0.85219571  0.22428463  0.69994617     0.06500
C2146       C  0.85119031  0.22309480  0.73274511    -0.14100
S2147       S  0.86245271  0.30389852  0.75758719    -0.31100
H2148       H  0.86165973  0.29318481  0.69067308     0.10800
S2149       S  0.84800940  0.19236379  0.67907999    -0.28200
H2150       H  0.84838077  0.20350556  0.74443469     0.08000
H2151       H  0.89030411  0.21771471  0.86904131     0.26500
H2152       H  0.85825835  0.31869074  0.73237405     0.21300
H2153       H  0.83421824  0.19586513  0.65246336     0.26600
H2154       H  0.79782164  0.22916970  0.75810547     0.15400
C2155       C  0.83275551  0.08948771  0.79951526    -0.11900
C2156       C  0.84933783  0.11723757  0.78543507     0.14700
C2157       C  0.86449678  0.14236622  0.80490110     0.01600
C2158       C  0.86472530  0.13887898  0.83750338    -0.16200
C2159       C  0.84934519  0.11087606  0.85176957    -0.11000
C2160       C  0.83231034  0.08593402  0.83221942     0.08300
C2161       C  0.85156961  0.11865852  0.75050426     0.09300
S2162       S  0.88417624  0.17948992  0.78973291    -0.25400
H2163       H  0.87715542  0.15840481  0.85187318     0.19600
S2164       S  0.81145242  0.04889703  0.84754037    -0.31100
H2165       H  0.82101323  0.07023593  0.78460924     0.09900
C2166       C  0.87845542  0.12679563  0.73497627     0.03100
C2167       C  0.87924275  0.12644197  0.70205842    -0.13400
C2168       C  0.85353405  0.11692846  0.68400792    -0.09000
C2169       C  0.82660272  0.10890002  0.69964516     0.06500
C2170       C  0.82595537  0.10982798  0.73252953    -0.14100
S2171       S  0.91135955  0.13534984  0.75697822    -0.31100
H2172       H  0.89978186  0.13214310  0.69031978     0.10800
S2173       S  0.79237746  0.09765311  0.67919032    -0.28200
H2174       H  0.80521943  0.10346727  0.74427427     0.08000
H2175       H  0.79234581  0.03675732  0.82166768     0.26500
H2176       H  0.92995125  0.14014159  0.73114588     0.21300
H2177       H  0.80557162  0.11675973  0.65364783     0.26600
H2178       H  0.86906146  0.17346572  0.76105513     0.15400
C2179       C  0.57569950  0.21344763  0.79929812    -0.11900
C2180       C  0.60023474  0.23788367  0.78593878     0.14700
C2181       C  0.62304793  0.25829903  0.80576337     0.01600
C2182       C  0.62161930  0.25295883  0.83809767    -0.16200
C2183       C  0.59728947  0.22827123  0.85142612    -0.11000
C2184       C  0.57395723  0.20841315  0.83167082     0.08300
C2185       C  0.60219259  0.24004071  0.75120690     0.09300
S2186       S  0.65425401  0.29178364  0.79142280    -0.25400
H2187       H  0.63923986  0.26868682  0.85312291     0.19600
S2188       S  0.54187804  0.17565048  0.84607191    -0.31100
H2189       H  0.55812755  0.19769342  0.78424320     0.09900
C2190       C  0.62108214  0.23302441  0.73441777     0.03100
C2191       C  0.62029795  0.23255734  0.70154494    -0.13400
C2192       C  0.60135871  0.23949305  0.68470139    -0.09000
C2193       C  0.58434351  0.24904154  0.70181938     0.06500
C2194       C  0.58415948  0.24815553  0.73470223    -0.14100
S2195       S  0.64502219  0.22291746  0.75478560    -0.31100
H2196       H  0.63376162  0.22556325  0.68904215     0.10800
S2197       S  0.56360356  0.26400794  0.68353069    -0.28200
H2198       H  0.57014044  0.25425261  0.74758024     0.08000
H2199       H  0.55664073  0.17025273  0.87045225     0.26500
H2200       H  0.66163650  0.22365301  0.72849769     0.21300
H2201       H  0.58484079  0.27922588  0.66012656     0.26600
H2202       H  0.64067070  0.29435939  0.76415184     0.15400
C2203       C  0.62736875  0.38237213  0.73510760    -0.11900
C2204       C  0.60030238  0.36862661  0.75116642     0.14700
C2205       C  0.57373950  0.35556638  0.73386040     0.01600
C2206       C  0.57473927  0.35581661  0.70114702    -0.16200
C2207       C  0.60168644  0.36977638  0.68473872    -0.11000
C2208       C  0.62841779  0.38299925  0.70218564     0.08300
C2209       C  0.60019900  0.36881753  0.78591594     0.09300
S2210       S  0.53771465  0.33877330  0.75195685    -0.25400
H2211       H  0.55402190  0.34594988  0.68839854     0.19600
S2212       S  0.66447529  0.40020648  0.68423771    -0.31100
H2213       H  0.64782330  0.39247240  0.74834969     0.09900
C2214       C  0.59396645  0.34357757  0.80354865     0.03100
C2215       C  0.59155880  0.34416194  0.83638049    -0.13400
C2216       C  0.59532973  0.36957754  0.85184890    -0.09000
C2217       C  0.60130543  0.39468477  0.83388363     0.06500
C2218       C  0.60423135  0.39420856  0.80135225    -0.14100
S2219       S  0.58930653  0.31080514  0.78415344    -0.31100
H2220       H  0.58707087  0.32496549  0.85006469     0.10800
S2221       S  0.60350650  0.42738359  0.85075311    -0.28200
H2222       H  0.60841235  0.41338951  0.78776028     0.08000
H2223       H  0.65607453  0.37963974  0.65958378     0.26500
H2224       H  0.58649225  0.29458937  0.81145426     0.21300
H2225       H  0.58120825  0.41216786  0.87315924     0.26600
H2226       H  0.54612083  0.35672147  0.77883965     0.15400
C2227       C  0.74523383  0.39610740  0.73646883    -0.11900
C2228       C  0.73899135  0.37007606  0.75190753     0.14700
C2229       C  0.73268464  0.34481113  0.73398014     0.01600
C2230       C  0.73373094  0.34660179  0.70118217    -0.16200
C2231       C  0.74060762  0.37289134  0.68539341    -0.11000
C2232       C  0.74611401  0.39799504  0.70366818     0.08300
C2233       C  0.73961425  0.37054488  0.78667479     0.09300
S2234       S  0.72319135  0.30952205  0.75094738    -0.25400
H2235       H  0.72902312  0.32704953  0.68787885     0.19600
S2236       S  0.75599318  0.43339600  0.68658689    -0.31100
H2237       H  0.75019274  0.41538055  0.75042677     0.09900
C2238       C  0.76229900  0.36964862  0.80363838     0.03100
C2239       C  0.76158090  0.36959391  0.83649986    -0.13400
C2240       C  0.73935171  0.37168036  0.85284640    -0.09000
C2241       C  0.71730686  0.37377330  0.83577766     0.06500
C2242       C  0.71772919  0.37325289  0.80295117    -0.14100
S2243       S  0.79260354  0.36940218  0.78354970    -0.31100
H2244       H  0.77873491  0.36844504  0.84958587     0.10800
S2245       S  0.68755598  0.37611443  0.85437796    -0.28200
H2246       H  0.70058398  0.37450871  0.78994032     0.08000
H2247       H  0.75123176  0.44612558  0.71343608     0.26500
H2248       H  0.81100191  0.37603674  0.80996725     0.21300
H2249       H  0.68445746  0.35754517  0.87961074     0.26600
H2250       H  0.71852143  0.31518849  0.78192120     0.15400
C2251       C  0.74345952  0.87263247  0.15170086     0.79700
N2252       N  0.74633880  0.85208125  0.13489413    -0.78600
C2253       C  0.75032182  0.85470112  0.10328808     0.82200
N2254       N  0.75135947  0.87806121  0.08818887    -0.78500
C2255       C  0.74741558  0.89811359  0.10463296     0.82300
N2256       N  0.74319011  0.89506494  0.13610271    -0.80200
C2257       C  0.73920011  0.86916464  0.38850542     0.79700
N2258       N  0.74109087  0.89279388  0.40406607    -0.78600
C2259       C  0.74606953  0.89570766  0.43559481     0.82200
N2260       N  0.74905650  0.87487656  0.45156422    -0.78500
C2261       C  0.74648791  0.85099156  0.43610256     0.82300
N2262       N  0.74168350  0.84835042  0.40477144    -0.80200
C2263       C  0.59668391  0.87236514  0.38590870     0.79700
N2264       N  0.61842017  0.89514271  0.40215697    -0.78600
C2265       C  0.61596070  0.89780301  0.43345785     0.82200
N2266       N  0.59171886  0.87725530  0.44895813    -0.78500
C2267       C  0.57031791  0.85365847  0.43313108     0.82300
N2268       N  0.57289147  0.85116762  0.40164451    -0.80200
C2269       C  0.59798140  0.86622517  0.15026773     0.79700
N2270       N  0.57432197  0.84477405  0.13467600    -0.78600
C2271       C  0.57039901  0.84745162  0.10366747     0.82200
N2272       N  0.59029359  0.87197032  0.08793886    -0.78500
C2273       C  0.61436465  0.89338273  0.10325428     0.82300
N2274       N  0.61808618  0.89044543  0.13433679    -0.80200
C2275       C  0.59882239  0.73162176  0.14966598     0.79700
N2276       N  0.57415640  0.72637892  0.13366827    -0.78600
C2277       C  0.57149880  0.72005708  0.10243560     0.82200
N2278       N  0.59348911  0.71862926  0.08704361    -0.78500
C2279       C  0.61832843  0.72422083  0.10276852     0.82300
N2280       N  0.62088107  0.73073133  0.13381649    -0.80200
C2281       C  0.60002130  0.72901744  0.38617942     0.79700
N2282       N  0.57614077  0.72708434  0.40099867    -0.78600
C2283       C  0.57225248  0.72171247  0.43228575     0.82200
N2284       N  0.59238241  0.71801395  0.44892578    -0.78500
C2285       C  0.61675558  0.72055538  0.43441322     0.82300
N2286       N  0.62052668  0.72615770  0.40304161    -0.80200
C2287       C  0.85589152  0.60852472  0.38561814     0.79700
N2288       N  0.88042547  0.62967516  0.40059399    -0.78600
C2289       C  0.88499347  0.62705407  0.43158040     0.82200
N2290       N  0.86481346  0.60320170  0.44787846    -0.78500
C2291       C  0.83983694  0.58252534  0.43338914     0.82300
N2292       N  0.83542405  0.58542137  0.40255690    -0.80200
C2293       C  0.85465302  0.61168694  0.14934162     0.79700
N2294       N  0.83324117  0.58732039  0.13469418    -0.78600
C2295       C  0.83570358  0.58233233  0.10388454     0.82200
N2296       N  0.85991702  0.60184756  0.08739071    -0.78500
C2297       C  0.88129857  0.62656042  0.10180076     0.82300
N2298       N  0.87858554  0.63129923  0.13266205    -0.80200
C2299       C  0.85854405  0.75116574  0.15158437     0.79700
N2300       N  0.88159982  0.75192841  0.13606738    -0.78600
C2301       C  0.88525944  0.75776729  0.10480695     0.82200
N2302       N  0.86548768  0.76247235  0.08888095    -0.78500
C2303       C  0.84186054  0.76086060  0.10406971     0.82300
N2304       N  0.83859953  0.75545406  0.13543605    -0.80200
C2305       C  0.85904988  0.74816657  0.38885216     0.79700
N2306       N  0.88232066  0.75083232  0.40554434    -0.78600
C2307       C  0.88460948  0.75641038  0.43681633     0.82200
N2308       N  0.86358498  0.75979346  0.45185594    -0.78500
C2309       C  0.83992108  0.75673222  0.43555307     0.82300
N2310       N  0.83771434  0.75078764  0.40432097    -0.80200
C2311       C  0.71959180  0.61242948  0.38685009     0.79700
N2312       N  0.71631802  0.58796588  0.40155539    -0.78600
C2313       C  0.70951653  0.58345320  0.43256502     0.82200
N2314       N  0.70571967  0.60349376  0.44916218    -0.78500
C2315       C  0.70928218  0.62821359  0.43483311     0.82300
N2316       N  0.71618835  0.63256950  0.40380852    -0.80200
C2317       C  0.71455982  0.60909598  0.15078289     0.79700
N2318       N  0.71399605  0.63136212  0.13512279    -0.78600
C2319       C  0.70861890  0.62926045  0.10376377     0.82200
N2320       N  0.70420819  0.60484898  0.08779892    -0.78500
C2321       C  0.70587925  0.58297761  0.10314401     0.82300
N2322       N  0.71108457  0.58521858  0.13452628    -0.80200
C2323       C  0.75161430  0.83122958  0.08566351     0.42000
N2324       N  0.74471529  0.78843742  0.07396308     0.00800
C2325       C  0.78516039  0.74272044  0.44126123    -0.07000
H2326       H  0.71651575  0.78622615  0.42256335     0.06300
C2327       C  0.63773845  0.70376336  0.48219832    -0.07400
Co2328     Co  0.77659970  0.78809398  0.01594390     0.74200
N2329       N  0.73938582  0.78233551  0.46261441    -0.26600
Co2330     Co  0.72703107  0.73817754  0.46333389     0.74100
C2331       C  0.63991638  0.71887876  0.45252690     0.42100
N2332       N  0.66846063  0.71367312  0.05563243     0.00500
N2333       N  0.68263460  0.72572238  0.46497780     0.00600
N2334       N  0.81776276  0.77392707  0.47730710    -0.47400
H2335       H  0.78034706  0.85216713  0.04180915     0.06300
N2336       N  0.75802926  0.80158584  0.48314084     0.00900
N2337       N  0.71470925  0.69394990  0.46516121     0.00600
C2338       C  0.70785731  0.65134648  0.45290738     0.42200
N2339       N  0.68763149  0.73201187  0.07641053    -0.26000
C2340       C  0.82097885  0.77776647  0.05679352    -0.06900
N2341       N  0.73858978  0.80298778  0.09528929    -0.47100
N2342       N  0.72078098  0.67962233  0.44356053    -0.47300
C2343       C  0.81875217  0.76286748  0.08651890     0.42000
N2344       N  0.79059623  0.76893971  0.48277150     0.00800
N2345       N  0.71875296  0.69939229  0.07654127    -0.26000
N2346       N  0.76152479  0.80549069  0.05105938    -0.26500
N2347       N  0.70024248  0.68042565  0.05570495     0.00500
H2348       H  0.73974987  0.69452010  0.11778035     0.06400
H2349       H  0.67927414  0.63000075  0.49681363     0.06400
N2350       N  0.77127558  0.75054070  0.46214871    -0.26600
N2351       N  0.66536969  0.70901526  0.48780852    -0.26200
N2352       N  0.77607819  0.75592915  0.07406804     0.00800
C2353       C  0.74662974  0.82670630  0.45269191     0.42200
C2354       C  0.67354555  0.73981005  0.09705329    -0.07400
N2355       N  0.69810026  0.67676615  0.48809105    -0.26200
H2356       H  0.61847268  0.69022206  0.49636459     0.06400
N2357       N  0.76301912  0.82874834  0.47808120    -0.47400
H2358       H  0.68343448  0.75418205  0.11707605     0.06400
C2359       C  0.70945300  0.65428938  0.08735474     0.42100
C2360       C  0.76679007  0.83311273  0.05619572    -0.06900
Co2361     Co  0.73178924  0.74391968  0.07567804     0.73800
N2362       N  0.64124619  0.70854086  0.06081264    -0.47100
C2363       C  0.81571327  0.75797394  0.45142771     0.42300
N2364       N  0.79036091  0.74992330  0.09576969    -0.47100
Co2365     Co  0.68209759  0.69488092  0.02073719     0.73900
C2366       C  0.69284105  0.64919155  0.48260538    -0.07400
C2367       C  0.73126223  0.79624601  0.44227702    -0.07000
N2368       N  0.79340407  0.77251550  0.05119087    -0.26500
N2369       N  0.66832039  0.73178191  0.44335236    -0.47300
H2370       H  0.77504506  0.72818877  0.42141296     0.06400
C2371       C  0.72558349  0.68486752  0.09758566    -0.07400
Cl2372     Cl  0.72931184  0.74150464  0.01829848    -0.50400
C2373       C  0.64305455  0.72446370  0.08655064     0.42100
H2374       H  0.84026583  0.79132694  0.04265673     0.06300
N2375       N  0.69408887  0.65293991  0.06127538    -0.47100
C2376       C  0.54540888  0.83006745  0.45022482     0.42000
N2377       N  0.01033760  0.78420536  0.46348376     0.00800
C2378       C  0.92424385  0.74129546  0.09828001    -0.07000
H2379       H  0.53480932  0.78263831  0.11792597     0.06300
C2380       C  0.53260920  0.70112034  0.05596399    -0.07400
Co2381     Co  0.97754924  0.78433169  0.02107957     0.74200
N2382       N  0.00910191  0.77939534  0.07687081    -0.26600
Co2383     Co  0.97682714  0.73510461  0.07579472     0.74100
C2384       C  0.54575565  0.71680464  0.08532880     0.42100
N2385       N  0.01057544  0.70880830  0.48023533     0.00500
N2386       N  0.00832361  0.72222723  0.07417516     0.00600
N2387       N  0.92350076  0.77256782  0.06212508    -0.47400
H2388       H  0.53833786  0.85090923  0.49468533     0.06300
N2389       N  0.00990854  0.79837461  0.05598807     0.00900
N2390       N  0.94437093  0.69096725  0.07354235     0.00600
C2391       C  0.90676502  0.64909502  0.08434957     0.42200
N2392       N  0.00991066  0.72724295  0.45961866    -0.26000
C2393       C  0.92298564  0.77324682  0.48304878    -0.06900
N2394       N  0.53042832  0.80175900  0.44062016    -0.47100
N2395       N  0.92298925  0.67719901  0.09424278    -0.47300
C2396       C  0.90932389  0.75763819  0.45398328     0.42000
N2397       N  0.94484330  0.76642928  0.05622606     0.00800
N2398       N  0.94642507  0.69580541  0.45975275    -0.26000
N2399       N  0.01088887  0.80138491  0.48653782    -0.26500
N2400       N  0.94548741  0.67650089  0.48026583     0.00500
H2401       H  0.92130666  0.69198688  0.41818281     0.06400
H2402       H  0.91385405  0.62721621  0.04071101     0.06400
N2403       N  0.94540632  0.74803397  0.07696316    -0.26600
N2404       N  0.00877816  0.70530379  0.05140815    -0.26200
N2405       N  0.94629353  0.75222218  0.46410675     0.00800
C2406       C  0.54541954  0.82289895  0.08753729     0.42200
C2407       C  0.53222233  0.73732045  0.43778370    -0.07400
N2408       N  0.94360000  0.67352710  0.05067369    -0.26200
H2409       H  0.53882534  0.68813776  0.04142717     0.06400
N2410       N  0.53137760  0.82454287  0.06164548    -0.47400
H2411       H  0.53688581  0.75179823  0.41792413     0.06400
C2412       C  0.91047077  0.65120831  0.44766022     0.42100
C2413       C  0.53287589  0.83180655  0.48024741    -0.06900
Co2414     Co  0.97826694  0.73996713  0.46130770     0.73800
N2415       N  0.53289893  0.70587792  0.47375621    -0.47100
C2416       C  0.90970761  0.75733221  0.08834658     0.42300
N2417       N  0.92493206  0.74527819  0.44350798    -0.47100
Co2418     Co  0.97638137  0.68991481  0.01588775     0.73900
C2419       C  0.92018079  0.64640591  0.05531407    -0.07400
C2420       C  0.53031806  0.79244723  0.09791488    -0.07000
N2421       N  0.94595474  0.76884434  0.48726163    -0.26500
N2422       N  0.52984200  0.72903823  0.09501897    -0.47300
H2423       H  0.91993706  0.72725769  0.11846582     0.06400
C2424       C  0.92534977  0.68187074  0.43819930    -0.07400
Cl2425     Cl  0.97697055  0.73713730  0.01845208    -0.50400
C2426       C  0.54704754  0.72148855  0.44791287     0.42100
H2427       H  0.91720608  0.78638438  0.49790780     0.06300
N2428       N  0.92387950  0.64921879  0.47399818    -0.47100
C2429       C  0.74760805  0.92098492  0.45236650     0.42000
N2430       N  0.74164832  0.95760692  0.46321697     0.00800
C2431       C  0.78063028  0.54207816  0.09901811    -0.07000
H2432       H  0.71581631  0.93178953  0.11968654     0.06300
C2433       C  0.63438178  0.93256430  0.05742661    -0.07400
Co2434     Co  0.77261443  0.99032943  0.02269061     0.74200
N2435       N  0.73654299  0.95808422  0.07862230    -0.26600
Co2436     Co  0.72310854  0.98934423  0.07765913     0.74100
C2437       C  0.63703348  0.91923337  0.08643428     0.42100
N2438       N  0.66630897  0.95801378  0.48100970     0.00500
N2439       N  0.67896569  0.95675141  0.07559334     0.00600
N2440       N  0.81268363  0.54249111  0.06289054    -0.47400
H2441       H  0.77631494  0.92889818  0.49630415     0.06300
N2442       N  0.75506149  0.95789964  0.05766709     0.00900
N2443       N  0.70983475  0.52113890  0.07484812     0.00600
C2444       C  0.70389160  0.55771760  0.08599326     0.42200
N2445       N  0.68533316  0.95831738  0.46040353    -0.26000
C2446       C  0.81908613  0.54460886  0.48012622    -0.06900
N2447       N  0.73499813  0.93647170  0.44225693    -0.47100
N2448       N  0.71640661  0.54210065  0.09595355    -0.47300
C2449       C  0.81675001  0.55780149  0.45090975     0.42000
N2450       N  0.78531129  0.52066633  0.05769794     0.00800
N2451       N  0.71759043  0.52215085  0.45946294    -0.26000
N2452       N  0.75837990  0.95736566  0.48625143    -0.26500
N2453       N  0.69942417  0.52314949  0.48031091     0.00500
H2454       H  0.73854831  0.54742419  0.41794314     0.06400
H2455       H  0.67536708  0.55022860  0.04199780     0.06400
N2456       N  0.76627976  0.52028010  0.07832025    -0.26600
N2457       N  0.66150851  0.95592738  0.05274586    -0.26200
N2458       N  0.77422129  0.52185105  0.46257800     0.00800
C2459       C  0.74617905  0.92232664  0.08876745     0.42200
C2460       C  0.67107678  0.93646528  0.43982112    -0.07400
N2461       N  0.69323324  0.52164381  0.05179340    -0.26200
H2462       H  0.61519338  0.92617166  0.04281767     0.06400
N2463       N  0.76138533  0.93663045  0.06280852    -0.47400
H2464       H  0.68085126  0.93168105  0.41992662     0.06400
C2465       C  0.70882680  0.55821270  0.44825318     0.42100
C2466       C  0.76304881  0.93459113  0.48162679    -0.06900
Co2467     Co  0.72957611  0.98979708  0.46107517     0.73800
N2468       N  0.63893625  0.93623154  0.47573762    -0.47100
C2469       C  0.81114205  0.55676848  0.08863475     0.42300
N2470       N  0.78846027  0.54253978  0.44136895    -0.47100
Co2471     Co  0.67772471  0.98839620  0.01767658     0.73900
C2472       C  0.68856832  0.54441535  0.05660310    -0.07400
C2473       C  0.72997139  0.93660422  0.09946014    -0.07000
N2474       N  0.79153789  0.52224012  0.48533375    -0.26500
N2475       N  0.66516452  0.93543737  0.09634821    -0.47300
H2476       H  0.77084941  0.54696921  0.11881563     0.06400
C2477       C  0.72453629  0.54330584  0.43816096    -0.07400
Cl2478     Cl  0.72514612  0.98924931  0.02025886    -0.50400
C2479       C  0.64062154  0.92185701  0.45014166     0.42100
H2480       H  0.83831823  0.55020676  0.49435032     0.06300
N2481       N  0.69369706  0.54474601  0.47459418    -0.47100
C2482       C  0.70457341  0.58990190  0.23769220    -0.11900
C2483       C  0.72672612  0.61620977  0.25114946     0.14700
C2484       C  0.74561220  0.63976416  0.23131308     0.01600
C2485       C  0.74107235  0.63695836  0.19877367    -0.16200
C2486       C  0.71853723  0.61079090  0.18530433    -0.11000
C2487       C  0.70010829  0.58699306  0.20520413     0.08300
C2488       C  0.72813313  0.61861121  0.28592027     0.05700
S2489       S  0.77570091  0.67393176  0.24599278    -0.25400
H2490       H  0.75552964  0.65526698  0.18377137     0.19600
S2491       S  0.66930531  0.55304980  0.19091121    -0.31100
H2492       H  0.68990298  0.57179050  0.25277897     0.09900
C2493       C  0.71580822  0.63330206  0.30233115     0.03100
C2494       C  0.71418705  0.63177784  0.33524103    -0.13400
C2495       C  0.72534278  0.61646940  0.35236461    -0.09000
C2496       C  0.74009275  0.60407936  0.33571938     0.06500
C2497       C  0.74047050  0.60448632  0.30284579    -0.14100
S2498       S  0.70110939  0.65306190  0.28130130    -0.31100
H2499       H  0.70327676  0.64176569  0.34757293     0.10800
S2500       S  0.76017240  0.58875106  0.35476511    -0.28200
H2501       H  0.75080943  0.59399186  0.29029385     0.08000
H2502       H  0.66074979  0.56654155  0.16793391     0.26500
H2503       H  0.69488113  0.66512117  0.30775364     0.21300
H2504       H  0.77050707  0.60934491  0.37953375     0.26600
H2505       H  0.78030271  0.66257270  0.27386777     0.15400
C2506       C  0.87760746  0.74203658  0.30286769    -0.11900
C2507       C  0.85527564  0.74436830  0.28722699     0.14700
C2508       C  0.83300932  0.74534873  0.30509940     0.01600
C2509       C  0.83459269  0.74569889  0.33784628    -0.16200
C2510       C  0.85747738  0.74437539  0.35389021    -0.11000
C2511       C  0.87869089  0.74137884  0.33570458     0.08300
C2512       C  0.85626397  0.74628138  0.25241899     0.09300
S2513       S  0.80204163  0.74671956  0.28810420    -0.25400
H2514       H  0.81771155  0.74742698  0.35082019     0.19600
S2515       S  0.90759888  0.73631090  0.35219789    -0.31100
H2516       H  0.89449786  0.74084716  0.28927976     0.09900
C2517       C  0.86197050  0.77234600  0.23680443     0.03100
C2518       C  0.86141235  0.77277790  0.20391319    -0.13400
C2519       C  0.85654485  0.74813505  0.18612013    -0.09000
C2520       C  0.85183404  0.72232729  0.20177742     0.06500
C2521       C  0.85173413  0.72171617  0.23466888    -0.14100
S2522       S  0.87105943  0.80543913  0.25868337    -0.31100
H2523       H  0.86556052  0.79270349  0.19189890     0.10800
S2524       S  0.84540771  0.68936667  0.18137797    -0.28200
H2525       H  0.84754981  0.70173550  0.24656677     0.08000
H2526       H  0.88812929  0.71299113  0.37174600     0.26500
H2527       H  0.88054575  0.82473726  0.23291710     0.21300
H2528       H  0.83314164  0.69401019  0.15418502     0.26600
H2529       H  0.80382110  0.73751439  0.25770983     0.15400
C2530       C  0.83445501  0.58900840  0.29915715    -0.11900
C2531       C  0.85107508  0.61666196  0.28494389     0.14700
C2532       C  0.86673031  0.64186875  0.30417141     0.01600
C2533       C  0.86739094  0.63852935  0.33671509    -0.16200
C2534       C  0.85200725  0.61060639  0.35108184    -0.11000
C2535       C  0.83449472  0.58555871  0.33179690     0.08300
C2536       C  0.85264466  0.61784007  0.25006098     0.09300
S2537       S  0.88653425  0.67889434  0.28876716    -0.25400
H2538       H  0.88017397  0.65807299  0.35094149     0.19600
S2539       S  0.81360291  0.54855256  0.34739201    -0.31100
H2540       H  0.82230520  0.56978565  0.28432860     0.09900
C2541       C  0.87939162  0.62666411  0.23394078     0.03100
C2542       C  0.87948909  0.62595596  0.20106984    -0.13400
C2543       C  0.85328511  0.61557470  0.18369393    -0.09000
C2544       C  0.82651195  0.60693361  0.19990118     0.06500
C2545       C  0.82651088  0.60807627  0.23274303    -0.14100
S2546       S  0.91304447  0.63628330  0.25499489    -0.31100
H2547       H  0.89989892  0.63195153  0.18888638     0.10800
S2548       S  0.79170367  0.59471247  0.18026521    -0.28200
H2549       H  0.80589773  0.60120016  0.24497206     0.08000
H2550       H  0.79758395  0.53471335  0.32001306     0.26500
H2551       H  0.93224652  0.64761304  0.22917749     0.21300
H2552       H  0.80399793  0.61414052  0.15479717     0.26600
H2553       H  0.87072858  0.67293051  0.26054316     0.15400
C2554       C  0.58468502  0.71120353  0.29958823    -0.11900
C2555       C  0.60376964  0.73848721  0.28564271     0.14700
C2556       C  0.62226415  0.76287644  0.30507093     0.01600
C2557       C  0.62123282  0.75914152  0.33780183    -0.16200
C2558       C  0.60212958  0.73171285  0.35160828    -0.11000
C2559       C  0.58381446  0.70751048  0.33211145     0.08300
C2560       C  0.60471335  0.73961357  0.25082272     0.09300
S2561       S  0.64779169  0.79920291  0.29014686    -0.25400
H2562       H  0.63517160  0.77787619  0.35265264     0.19600
S2563       S  0.55892054  0.67121040  0.34729463    -0.31100
H2564       H  0.57067365  0.69238246  0.28486028     0.09900
C2565       C  0.62120955  0.72967943  0.23391162     0.03100
C2566       C  0.61924966  0.72796641  0.20109811    -0.13400
C2567       C  0.60132812  0.73631046  0.18437944    -0.09000
C2568       C  0.58584343  0.74761354  0.20152206     0.06500
C2569       C  0.58714588  0.74841788  0.23443139    -0.14100
S2570       S  0.64425432  0.71842076  0.25427433    -0.31100
H2571       H  0.63126043  0.71932271  0.18849462     0.10800
S2572       S  0.56497120  0.76239336  0.18314380    -0.28200
H2573       H  0.57444771  0.75607161  0.24738095     0.08000
H2574       H  0.57639422  0.67310551  0.37320723     0.26500
H2575       H  0.65588016  0.71214455  0.22750456     0.21300
H2576       H  0.58563012  0.77671705  0.15901230     0.26600
H2577       H  0.63974546  0.79449813  0.25843257     0.15400
C2578       C  0.62733910  0.87468549  0.23386126    -0.11900
C2579       C  0.60115160  0.86462939  0.25106986     0.14700
C2580       C  0.57410422  0.85403959  0.23496255     0.01600
C2581       C  0.57377564  0.85356723  0.20221664    -0.16200
C2582       C  0.59997697  0.86430036  0.18479308    -0.11000
C2583       C  0.62703506  0.87437887  0.20096768     0.08300
C2584       C  0.60258408  0.86643737  0.28572219     0.09300
S2585       S  0.53930946  0.84160826  0.25474780    -0.25400
H2586       H  0.55289146  0.84592383  0.19023144     0.19600
S2587       S  0.66164217  0.88608969  0.18117910    -0.31100
H2588       H  0.64811858  0.88264421  0.24616948     0.09900
C2589       C  0.59222165  0.84107114  0.30455931     0.03100
C2590       C  0.59067416  0.84355893  0.33721297    -0.13400
C2591       C  0.59900333  0.87090114  0.35139227    -0.09000
C2592       C  0.60960271  0.89632160  0.33225698     0.06500
C2593       C  0.61183755  0.89386843  0.29986114    -0.14100
S2594       S  0.58061091  0.80553708  0.28691029    -0.31100
H2595       H  0.58287678  0.82415187  0.35177021     0.10800
S2596       S  0.61830942  0.93208773  0.34713885    -0.28200
H2597       H  0.61928632  0.91326916  0.28530550     0.08000
H2598       H  0.64921092  0.86564168  0.15643850     0.26500
H2599       H  0.57229905  0.78909722  0.31482514     0.21300
H2600       H  0.59463526  0.92103133  0.36848112     0.26600
H2601       H  0.55071719  0.86114991  0.28030438     0.15400
C2602       C  0.74524286  0.89134360  0.23896131    -0.11900
C2603       C  0.73568815  0.86382715  0.25288061     0.14700
C2604       C  0.72810081  0.83906762  0.23346927     0.01600
C2605       C  0.73074475  0.84268472  0.20082591    -0.16200
C2606       C  0.74060430  0.87038190  0.18666095    -0.11000
C2607       C  0.74813759  0.89512814  0.20636115     0.08300
C2608       C  0.73516176  0.86267119  0.28770934     0.09300
S2609       S  0.71495990  0.80225830  0.24837002    -0.25400
H2610       H  0.72481724  0.82346690  0.18633390     0.19600
S2611       S  0.76335070  0.93219046  0.19114328    -0.31100
H2612       H  0.75126508  0.91020972  0.25403449     0.09900
C2613       C  0.75589800  0.85855315  0.30482450     0.03100
C2614       C  0.75602591  0.86005297  0.33767076    -0.13400
C2615       C  0.73658690  0.86662760  0.35391740    -0.09000
C2616       C  0.71581411  0.87072127  0.33673392     0.06500
C2617       C  0.71545461  0.86886054  0.30392438    -0.14100
S2618       S  0.78335712  0.85311483  0.28491971    -0.31100
H2619       H  0.77202965  0.85702108  0.35080234     0.10800
S2620       S  0.68884694  0.87774092  0.35513399    -0.28200
H2621       H  0.69969898  0.87235070  0.29083646     0.08000
H2622       H  0.76726842  0.94690099  0.21990951     0.26500
H2623       H  0.79948329  0.85408975  0.31172999     0.21300
H2624       H  0.68484698  0.86037007  0.38177734     0.26600
H2625       H  0.70752219  0.80673479  0.27866524     0.15400
C2626       C  0.73954463  0.87255436  0.65073237     0.79700
N2627       N  0.74333910  0.85193572  0.63509809    -0.78600
C2628       C  0.74846394  0.85417793  0.60361329     0.82200
N2629       N  0.74980437  0.87722460  0.58752958    -0.78500
C2630       C  0.74505661  0.89726902  0.60284387     0.82300
N2631       N  0.73975383  0.89459914  0.63405993    -0.80200
C2632       C  0.74159840  0.87315117  0.88771889     0.79700
N2633       N  0.74252174  0.89574331  0.90441778    -0.78600
C2634       C  0.74721932  0.89760797  0.93593571     0.82200
N2635       N  0.75073298  0.87662767  0.95086632    -0.78500
C2636       C  0.74905051  0.85362239  0.93430231     0.82300
N2637       N  0.74462681  0.85208851  0.90286775    -0.80200
C2638       C  0.59507077  0.86949797  0.88692306     0.79700
N2639       N  0.61616662  0.89287771  0.90312500    -0.78600
C2640       C  0.61379960  0.89527311  0.93450314     0.82200
N2641       N  0.59008480  0.87389256  0.95007604    -0.78500
C2642       C  0.56925552  0.84974653  0.93429632     0.82300
N2643       N  0.57187990  0.84752097  0.90271851    -0.80200
C2644       C  0.60002467  0.87080196  0.65033921     0.79700
N2645       N  0.57709268  0.84869590  0.63441166    -0.78600
C2646       C  0.57297497  0.85138391  0.60342745     0.82200
N2647       N  0.59202216  0.87643044  0.58796786    -0.78500
C2648       C  0.61539515  0.89844518  0.60346362     0.82300
N2649       N  0.61924237  0.89561933  0.63456709    -0.80200
C2650       C  0.59845477  0.73143977  0.64998418     0.79700
N2651       N  0.57407628  0.72638888  0.63354726    -0.78600
C2652       C  0.57166916  0.71978602  0.60239000     0.82200
N2653       N  0.59365677  0.71786496  0.58756771    -0.78500
C2654       C  0.61821391  0.72325880  0.60381493     0.82300
N2655       N  0.62049897  0.73008324  0.63473260    -0.80200
C2656       C  0.59516298  0.72404812  0.88536031     0.79700
N2657       N  0.57087730  0.72039912  0.90073762    -0.78600
C2658       C  0.56829582  0.71609556  0.93216391     0.82200
N2659       N  0.59023037  0.71541241  0.94850709    -0.78500
C2660       C  0.61509669  0.71990399  0.93346836     0.82300
N2661       N  0.61764534  0.72451134  0.90190996    -0.80200
C2662       C  0.85422635  0.60560290  0.88694538     0.79700
N2663       N  0.87864597  0.62714135  0.90168432    -0.78600
C2664       C  0.88298645  0.62546529  0.93289444     0.82200
N2665       N  0.86259826  0.60208077  0.94974577    -0.78500
C2666       C  0.83763688  0.58094887  0.93548424     0.82300
N2667       N  0.83353437  0.58296866  0.90431258    -0.80200
C2668       C  0.85785785  0.61076498  0.65014375     0.79700
N2669       N  0.83644142  0.58700914  0.63461889    -0.78600
C2670       C  0.83952919  0.58259680  0.60376273     0.82200
N2671       N  0.86426362  0.60210379  0.58811241    -0.78500
C2672       C  0.88562656  0.62622090  0.60327984     0.82300
N2673       N  0.88240683  0.63042234  0.63421587    -0.80200
C2674       C  0.85901015  0.75014414  0.65179921     0.79700
N2675       N  0.88212673  0.75084716  0.63646675    -0.78600
C2676       C  0.88579904  0.75649378  0.60516977     0.82200
N2677       N  0.86597506  0.76105539  0.58907362    -0.78500
C2678       C  0.84233648  0.75950934  0.60421453     0.82300
N2679       N  0.83908454  0.75426030  0.63553370    -0.80200
C2680       C  0.85646355  0.74502922  0.88790366     0.79700
N2681       N  0.88062417  0.74914937  0.90401196    -0.78600
C2682       C  0.88405350  0.75656771  0.93489840     0.82200
N2683       N  0.86333101  0.76045904  0.94997399    -0.78500
C2684       C  0.83894737  0.75612078  0.93412324     0.82300
N2685       N  0.83563234  0.74830919  0.90342648    -0.80200
C2686       C  0.71934520  0.61083146  0.88713996     0.79700
N2687       N  0.71511804  0.58642990  0.90265480    -0.78600
C2688       C  0.70768974  0.58252626  0.93349250     0.82200
N2689       N  0.70420264  0.60326007  0.94915394    -0.78500
C2690       C  0.70870125  0.62803873  0.93397125     0.82300
N2691       N  0.71622792  0.63168015  0.90306934    -0.80200
C2692       C  0.72137656  0.61039161  0.65096617     0.79700
N2693       N  0.71953419  0.63247651  0.63643624    -0.78600
C2694       C  0.71334990  0.63071208  0.60525324     0.82200
N2695       N  0.70927778  0.60687315  0.58841631    -0.78500
C2696       C  0.71219730  0.58527525  0.60261686     0.82300
N2697       N  0.71827076  0.58715108  0.63377009    -0.80200
C2698       C  0.75098804  0.83085874  0.58702618     0.42000
N2699       N  0.74484210  0.78821104  0.57594182     0.00800
C2700       C  0.78456523  0.74309590  0.93926531    -0.07000
H2701       H  0.71843184  0.78875449  0.91953532     0.06300
C2702       C  0.63760873  0.70536082  0.98077294    -0.07400
Co2703     Co  0.77679276  0.78775830  0.51782413     0.74200
N2704       N  0.73983008  0.78370486  0.96030203    -0.26600
Co2705     Co  0.72662561  0.73917970  0.96089504     0.74100
C2706       C  0.63939048  0.72038805  0.95133098     0.42100
N2707       N  0.66895336  0.71273842  0.55785266     0.00500
N2708       N  0.68227991  0.72730555  0.96283540     0.00600
N2709       N  0.81713840  0.77374023  0.97572620    -0.47400
H2710       H  0.77954258  0.85160466  0.54301375     0.06300
N2711       N  0.75849864  0.80258085  0.98110142     0.00900
N2712       N  0.71367827  0.69450869  0.96242542     0.00600
C2713       C  0.70693505  0.65164507  0.95096953     0.42200
N2714       N  0.68796099  0.73134605  0.57860824    -0.26000
C2715       C  0.82127604  0.77685036  0.55755746    -0.06900
N2716       N  0.73828401  0.80271727  0.59693981    -0.47100
N2717       N  0.71987349  0.67988570  0.94119698    -0.47300
C2718       C  0.81920679  0.76165569  0.58697694     0.42000
N2719       N  0.79008084  0.76912956  0.98090867     0.00800
N2720       N  0.71987695  0.69959552  0.57921674    -0.26000
N2721       N  0.76156147  0.80515936  0.55293508    -0.26500
N2722       N  0.70156889  0.68034325  0.55845125     0.00500
H2723       H  0.74190010  0.69566889  0.62012071     0.06400
H2724       H  0.67844009  0.63094351  0.99500666     0.06400
N2725       N  0.77076337  0.75106217  0.96003861    -0.26600
N2726       N  0.66521813  0.71058931  0.98579294    -0.26200
N2727       N  0.77676865  0.75608098  0.57598262     0.00800
C2728       C  0.74898818  0.82879280  0.95006093     0.42200
C2729       C  0.67356609  0.73900853  0.59900336    -0.07400
N2730       N  0.69704686  0.67752391  0.98546622    -0.26200
H2731       H  0.61851691  0.69167980  0.99511235     0.06400
N2732       N  0.76450655  0.83006984  0.97593109    -0.47400
H2733       H  0.68323663  0.75358466  0.61891935     0.06400
C2734       C  0.71213617  0.65509694  0.58991365     0.42100
C2735       C  0.76635032  0.83266898  0.55768957    -0.06900
Co2736     Co  0.73235389  0.74383757  0.57795625     0.73800
N2737       N  0.64162555  0.70735883  0.56273530    -0.47100
C2738       C  0.81500357  0.75784252  0.94981725     0.42300
N2739       N  0.79108650  0.74943373  0.59700930    -0.47100
Co2740     Co  0.68281225  0.69398320  0.52320191     0.73900
C2741       C  0.69181719  0.64990848  0.98043305    -0.07400
C2742       C  0.73284115  0.79831402  0.93957819    -0.07000
N2743       N  0.79386953  0.77240935  0.55284632    -0.26500
N2744       N  0.66766123  0.73334657  0.94150677    -0.47300
H2745       H  0.77445634  0.72874067  0.91927984     0.06400
C2746       C  0.72746115  0.68562336  0.60018681    -0.07400
Cl2747     Cl  0.72974440  0.74091485  0.52061058    -0.50400
C2748       C  0.64311662  0.72332702  0.58827282     0.42100
H2749       H  0.84029435  0.78975940  0.54283286     0.06300
N2750       N  0.69643778  0.65319222  0.56391174    -0.47100
C2751       C  0.54440658  0.82577343  0.95143550     0.42000
N2752       N  0.00962442  0.78342985  0.96310972     0.00800
C2753       C  0.92540514  0.74060054  0.59882652    -0.07000
H2754       H  0.53850750  0.78607116  0.61671963     0.06300
C2755       C  0.53358360  0.70258126  0.55492701    -0.07400
Co2756     Co  0.97853051  0.78459843  0.52186387     0.74200
N2757       N  0.01065010  0.78007284  0.57715691    -0.26600
Co2758     Co  0.97886068  0.73566975  0.57588494     0.74100
C2759       C  0.54659012  0.71757475  0.58468907     0.42100
N2760       N  0.00911372  0.70791579  0.98112715     0.00500
N2761       N  0.01086564  0.72366903  0.57311870     0.00600
N2762       N  0.92437433  0.77191010  0.56291502    -0.47400
H2763       H  0.53671343  0.84659520  0.99553123     0.06300
N2764       N  0.01118889  0.79905561  0.55649074     0.00900
N2765       N  0.94712239  0.69134452  0.57397950     0.00600
C2766       C  0.91115072  0.64889640  0.58609546     0.42200
N2767       N  0.00860732  0.72626272  0.96025637    -0.26000
C2768       C  0.92274092  0.77400867  0.98115186    -0.06900
N2769       N  0.52917818  0.79747418  0.94164107    -0.47100
N2770       N  0.92670596  0.67718003  0.59553783    -0.47300
C2771       C  0.90932637  0.75859962  0.95186693     0.42000
N2772       N  0.94606660  0.76628403  0.55711205     0.00800
N2773       N  0.94496047  0.69495771  0.95965797    -0.26000
N2774       N  0.01029170  0.80080398  0.98600396    -0.26500
N2775       N  0.94399589  0.67584859  0.98046464     0.00500
H2776       H  0.91949827  0.69051262  0.91812248     0.06400
H2777       H  0.91784163  0.62732225  0.54194317     0.06400
N2778       N  0.94683982  0.74787162  0.57766719    -0.26600
N2779       N  0.01127420  0.70681128  0.55022908    -0.26200
N2780       N  0.94552399  0.75212227  0.96304767     0.00800
C2781       C  0.54863855  0.82654285  0.58688792     0.42200
C2782       C  0.52891469  0.73185216  0.93835029    -0.07400
N2783       N  0.94629580  0.67402549  0.55093326    -0.26200
H2784       H  0.53912028  0.68896279  0.54057893     0.06400
N2785       N  0.53425363  0.82828379  0.56135840    -0.47400
H2786       H  0.53296884  0.74561598  0.91797552     0.06400
C2787       C  0.90861467  0.65008602  0.94841261     0.42100
C2788       C  0.53124167  0.82752960  0.98104759    -0.06900
Co2789     Co  0.97715070  0.73923702  0.96107164     0.73800
N2790       N  0.53011698  0.70097426  0.97476584    -0.47100
C2791       C  0.91049187  0.75633595  0.58890246     0.42300
N2792       N  0.92458501  0.74564078  0.94200208    -0.47100
Co2793     Co  0.97833227  0.69073612  0.51539396     0.73900
C2794       C  0.92382974  0.64655831  0.55636149    -0.07400
C2795       C  0.53383173  0.79595263  0.59690061    -0.07000
N2796       N  0.94524447  0.76896379  0.98600999    -0.26500
N2797       N  0.53143335  0.73070021  0.59411048    -0.47300
H2798       H  0.92108227  0.72634920  0.61881928     0.06400
C2799       C  0.92367197  0.68068076  0.93831655    -0.07400
Cl2800     Cl  0.97846667  0.73768808  0.51860406    -0.50400
C2801       C  0.54343963  0.71578211  0.94827275     0.42100
H2802       H  0.91711794  0.78743460  0.99573031     0.06300
N2803       N  0.92223574  0.64853495  0.97472580    -0.47100
C2804       C  0.74732594  0.92167868  0.95368948     0.42000
N2805       N  0.74013914  0.95741024  0.96499388     0.00800
C2806       C  0.78450679  0.54321213  0.59742454    -0.07000
H2807       H  0.71452177  0.93184808  0.61682268     0.06300
C2808       C  0.63572691  0.93681338  0.55672767    -0.07400
Co2809     Co  0.77404009  0.99007117  0.52120256     0.74200
N2810       N  0.73685397  0.95843000  0.57648164    -0.26600
Co2811     Co  0.72492603  0.99071875  0.57557378     0.74100
C2812       C  0.63798811  0.92409340  0.58642448     0.42100
N2813       N  0.66371504  0.95571209  0.98272567     0.00500
N2814       N  0.68063644  0.95945807  0.57392940     0.00600
N2815       N  0.81671985  0.54407069  0.56123908    -0.47400
H2816       H  0.77672108  0.93034000  0.99720877     0.06300
N2817       N  0.75533959  0.95771563  0.55585489     0.00900
N2818       N  0.71433186  0.52295714  0.57327500     0.00600
C2819       C  0.70974983  0.56023183  0.58471164     0.42200
N2820       N  0.68292204  0.95658040  0.96202402    -0.26000
C2821       C  0.81610051  0.54318617  0.98278323    -0.06900
N2822       N  0.73394881  0.93652216  0.94390899    -0.47100
N2823       N  0.72178510  0.54412191  0.59428467    -0.47300
C2824       C  0.81416105  0.55663523  0.95348379     0.42000
N2825       N  0.78929992  0.52253229  0.55548998     0.00800
N2826       N  0.71464709  0.52082611  0.96114449    -0.26000
N2827       N  0.75733132  0.95765278  0.98779575    -0.26500
N2828       N  0.69615958  0.52172710  0.98163280     0.00500
H2829       H  0.73641441  0.54633863  0.92007734     0.06400
H2830       H  0.68057903  0.55316649  0.54130548     0.06400
N2831       N  0.77025997  0.52190781  0.57623880    -0.26600
N2832       N  0.66335854  0.95895041  0.55109297    -0.26200
N2833       N  0.77136101  0.52059926  0.96485370     0.00800
C2834       C  0.74434941  0.92131862  0.58629816     0.42200
C2835       C  0.66881803  0.93506973  0.94097135    -0.07400
N2836       N  0.69758057  0.52371784  0.55054520    -0.26200
H2837       H  0.61645839  0.93107026  0.54249046     0.06400
N2838       N  0.76049352  0.93566139  0.56086723    -0.47400
H2839       H  0.67874360  0.93085654  0.92081784     0.06400
C2840       C  0.70644217  0.55722054  0.94978172     0.42100
C2841       C  0.76281263  0.93544432  0.98286863    -0.06900
Co2842     Co  0.72709187  0.98880851  0.96292518     0.73800
N2843       N  0.63641645  0.93380204  0.97714513    -0.47100
C2844       C  0.81504467  0.55785116  0.58741333     0.42300
N2845       N  0.78589218  0.54138048  0.94376541    -0.47100
Co2846     Co  0.68063969  0.99096170  0.51557314     0.73900
C2847       C  0.69365264  0.54694649  0.55560783    -0.07400
C2848       C  0.72898521  0.93645215  0.59689595    -0.07000
N2849       N  0.78843162  0.52078611  0.98776865    -0.26500
N2850       N  0.66637103  0.93925360  0.59559119    -0.47300
H2851       H  0.77466198  0.54760483  0.61752753     0.06400
C2852       C  0.72206988  0.54215597  0.94000498    -0.07400
Cl2853     Cl  0.72728910  0.99040624  0.51834529    -0.50400
C2854       C  0.63824928  0.91992815  0.95114960     0.42100
H2855       H  0.83519864  0.54864095  0.99717244     0.06300
N2856       N  0.69071276  0.54353484  0.97579835    -0.47100
C2857       C  0.70832459  0.58696310  0.73657123    -0.11900
C2858       C  0.72958308  0.61272333  0.75165995     0.14700
C2859       C  0.74904071  0.63732739  0.73339810     0.01600
C2860       C  0.74612288  0.63610243  0.70064983    -0.16200
C2861       C  0.72437947  0.61051638  0.68553067    -0.11000
C2862       C  0.70524447  0.58571101  0.70390526     0.08300
C2863       C  0.72884631  0.61413735  0.78640356     0.05700
S2864       S  0.77733397  0.67113404  0.75067206    -0.25400
H2865       H  0.76095565  0.65523931  0.68686778     0.19600
S2866       S  0.67484427  0.55267939  0.68741379    -0.31100
H2867       H  0.69303331  0.56816284  0.75048141     0.09900
C2868       C  0.71488498  0.62782416  0.80160869     0.03100
C2869       C  0.71326426  0.62750091  0.83447373    -0.13400
C2870       C  0.72527187  0.61369397  0.85273157    -0.09000
C2871       C  0.74053241  0.60118269  0.83726643     0.06500
C2872       C  0.74156596  0.60100616  0.80440101    -0.14100
S2873       S  0.69819925  0.64486102  0.77904918    -0.31100
H2874       H  0.70171118  0.63725968  0.84594210     0.10800
S2875       S  0.76030786  0.58628415  0.85780558    -0.28200
H2876       H  0.75279337  0.59096608  0.79272977     0.08000
H2877       H  0.66697340  0.56753923  0.66539442     0.26500
H2878       H  0.68456115  0.65067413  0.80432991     0.21300
H2879       H  0.76980529  0.60700817  0.88241384     0.26600
H2880       H  0.78199451  0.65839873  0.77743686     0.15400
C2881       C  0.87279448  0.73612410  0.80233569    -0.11900
C2882       C  0.85086637  0.73925688  0.78683466     0.14700
C2883       C  0.82857837  0.74016057  0.80478507     0.01600
C2884       C  0.83041243  0.74063976  0.83750164    -0.16200
C2885       C  0.85347489  0.73941476  0.85330481    -0.11000
C2886       C  0.87387906  0.73527450  0.83510611     0.08300
C2887       C  0.85254817  0.74217106  0.75215747     0.09300
S2888       S  0.79743546  0.74145003  0.78807044    -0.25400
H2889       H  0.81380310  0.74272774  0.85061924     0.19600
S2890       S  0.90152522  0.72830124  0.85166447    -0.31100
H2891       H  0.88948218  0.73462139  0.78868399     0.09900
C2892       C  0.85792633  0.76845328  0.73724405     0.03100
C2893       C  0.85914941  0.77006500  0.70439592    -0.13400
C2894       C  0.85619444  0.74637480  0.68613389    -0.09000
C2895       C  0.85149233  0.72033345  0.70110616     0.06500
C2896       C  0.84992554  0.71861668  0.73387549    -0.14100
S2897       S  0.86443749  0.80037199  0.75998137    -0.31100
H2898       H  0.86310699  0.79010942  0.69282644     0.10800
S2899       S  0.84670794  0.68836302  0.67986066    -0.28200
H2900       H  0.84606899  0.69852698  0.74524269     0.08000
H2901       H  0.88178207  0.70715177  0.87303939     0.26500
H2902       H  0.87176837  0.81997765  0.73467265     0.21300
H2903       H  0.83395090  0.69286652  0.65296989     0.26600
H2904       H  0.80028408  0.73442454  0.75702462     0.15400
C2905       C  0.83464592  0.58479086  0.80026132    -0.11900
C2906       C  0.85032264  0.61251917  0.78591745     0.14700
C2907       C  0.86470336  0.63791880  0.80505318     0.01600
C2908       C  0.86510819  0.63493801  0.83766822    -0.16200
C2909       C  0.85065108  0.60708284  0.85224045    -0.11000
C2910       C  0.83446245  0.58166221  0.83304208     0.08300
C2911       C  0.85274199  0.61395042  0.75104351     0.09300
S2912       S  0.88335747  0.67474980  0.78919674    -0.25400
H2913       H  0.87695733  0.65472316  0.85180539     0.19600
S2914       S  0.81522295  0.54478905  0.84915881    -0.31100
H2915       H  0.82348825  0.56537162  0.78549042     0.09900
C2916       C  0.87996273  0.62314333  0.73577833     0.03100
C2917       C  0.88111819  0.62328445  0.70288733    -0.13400
C2918       C  0.85557764  0.61391810  0.68459479    -0.09000
C2919       C  0.82844271  0.60551585  0.69997770     0.06500
C2920       C  0.82729221  0.60529732  0.73286917    -0.14100
S2921       S  0.91301387  0.63273531  0.75800605    -0.31100
H2922       H  0.90184506  0.62935978  0.69137539     0.10800
S2923       S  0.79469542  0.59573004  0.67919205    -0.28200
H2924       H  0.80641150  0.59858031  0.74443336     0.08000
H2925       H  0.80042048  0.53000082  0.82157536     0.26500
H2926       H  0.93295771  0.64442296  0.73282848     0.21300
H2927       H  0.80861522  0.61561758  0.65439590     0.26600
H2928       H  0.86642432  0.66801778  0.76168493     0.15400
C2929       C  0.57561640  0.71289162  0.79873039    -0.11900
C2930       C  0.60000147  0.73751775  0.78554385     0.14700
C2931       C  0.62271071  0.75800996  0.80543393     0.01600
C2932       C  0.62110207  0.75265531  0.83778383    -0.16200
C2933       C  0.59688136  0.72771544  0.85091533    -0.11000
C2934       C  0.57384940  0.70769351  0.83100423     0.08300
C2935       C  0.60214301  0.73906863  0.75088705     0.09300
S2936       S  0.65405765  0.79151908  0.79136898    -0.25400
H2937       H  0.63853461  0.76844696  0.85292952     0.19600
S2938       S  0.54229206  0.67429509  0.84501009    -0.31100
H2939       H  0.55828255  0.69698471  0.78356174     0.09900
C2940       C  0.61830990  0.72830537  0.73474010     0.03100
C2941       C  0.61727328  0.72691126  0.70193275    -0.13400
C2942       C  0.60062424  0.73637721  0.68455428    -0.09000
C2943       C  0.58574328  0.74873924  0.70093733     0.06500
C2944       C  0.58601623  0.74915779  0.73382266    -0.14100
S2945       S  0.63887206  0.71460515  0.75596955    -0.31100
H2946       H  0.62869995  0.71731100  0.68987773     0.10800
S2947       S  0.56690918  0.76524042  0.68158985    -0.28200
H2948       H  0.57357186  0.75745288  0.74622440     0.08000
H2949       H  0.55775713  0.66883753  0.86856739     0.26500
H2950       H  0.65474929  0.71307797  0.73008697     0.21300
H2951       H  0.58792718  0.77811869  0.65748226     0.26600
H2952       H  0.64247626  0.79253091  0.76202649     0.15400
C2953       C  0.62902791  0.88218042  0.73479904    -0.11900
C2954       C  0.60242124  0.86676125  0.75151370     0.14700
C2955       C  0.57558173  0.85173870  0.73474684     0.01600
C2956       C  0.57584130  0.85240472  0.70197420    -0.16200
C2957       C  0.60227021  0.86846616  0.68499117    -0.11000
C2958       C  0.62931598  0.88289159  0.70184791     0.08300
C2959       C  0.60290050  0.86758327  0.78635594     0.09300
S2960       S  0.54004737  0.83203891  0.75376757    -0.25400
H2961       H  0.55488083  0.84123059  0.68970179     0.19600
S2962       S  0.66492928  0.90159182  0.68297261    -0.31100
H2963       H  0.64973312  0.89353734  0.74753072     0.09900
C2964       C  0.59675823  0.84263611  0.80450234     0.03100
C2965       C  0.59391825  0.84349766  0.83726193    -0.13400
C2966       C  0.59714781  0.86889704  0.85225175    -0.09000
C2967       C  0.60344268  0.89387283  0.83385580     0.06500
C2968       C  0.60677687  0.89311517  0.80137577    -0.14100
S2969       S  0.59257723  0.80978493  0.78584717    -0.31100
H2970       H  0.58939745  0.82447382  0.85127503     0.10800
S2971       S  0.60537999  0.92669145  0.85002489    -0.28200
H2972       H  0.61096292  0.91212076  0.78746669     0.08000
H2973       H  0.65684907  0.88109234  0.65827215     0.26500
H2974       H  0.58830006  0.79341452  0.81338937     0.21300
H2975       H  0.58275593  0.91165749  0.87214962     0.26600
H2976       H  0.54734107  0.85108051  0.77968409     0.15400
C2977       C  0.73779548  0.89317135  0.73696417    -0.11900
C2978       C  0.73303400  0.86749321  0.75219181     0.14700
C2979       C  0.72818802  0.84283468  0.73391438     0.01600
C2980       C  0.72975549  0.84511641  0.70118006    -0.16200
C2981       C  0.73592233  0.87130416  0.68567187    -0.11000
C2982       C  0.73950155  0.89563925  0.70417749     0.08300
C2983       C  0.73495842  0.86824301  0.78700673     0.09300
S2984       S  0.72022748  0.80774354  0.75020290    -0.25400
H2985       H  0.72636472  0.82608082  0.68769812     0.19600
S2986       S  0.74790056  0.93078331  0.68741328    -0.31100
H2987       H  0.74130966  0.91186248  0.75114087     0.09900
C2988       C  0.75811996  0.86708110  0.80271046     0.03100
C2989       C  0.75923407  0.86812192  0.83556352    -0.13400
C2990       C  0.73855717  0.87174876  0.85318209    -0.09000
C2991       C  0.71602313  0.87405685  0.83739626     0.06500
C2992       C  0.71449418  0.87230811  0.80457239    -0.14100
S2993       S  0.78703887  0.86558611  0.78095594    -0.31100
H2994       H  0.77677977  0.86685515  0.84765765     0.10800
S2995       S  0.68813031  0.87835453  0.85771880    -0.28200
H2996       H  0.69703251  0.87385332  0.79259557     0.08000
H2997       H  0.74912557  0.94554755  0.71545432     0.26500
H2998       H  0.80437855  0.86717951  0.80689742     0.21300
H2999       H  0.68565393  0.86023610  0.88317491     0.26600
H3000       H  0.71627445  0.81303471  0.78153433     0.15400
loop_ 
_geom_bond_atom_site_label_1 
_geom_bond_atom_site_label_2 
_geom_bond_distance 
_geom_bond_site_symmetry_2 
_ccdc_geom_bond_type 
C1            N2   1.364       .  A
C1            N6   1.354       .  A
C1          C356   1.502       .  S
N2            C3   1.367       .  A
C3            N4   1.361       .  A
C3           C73   1.474       .  S
N4            C5   1.358       .  A
C5            N6   1.354       .  A
C5          C209   1.465       .  S
C7            N8   1.360       .  A
C7           N12   1.356       .  A
C7          C365   1.484       .  S
N8            C9   1.365       .  A
C9           N10   1.360       .  A
C9          C179   1.469       .  S
N10          C11   1.359       .  A
C11          N12   1.358       .  A
C11         C103   1.467       .  S
C13          N14   1.356       .  A
C13          N18   1.359       .  A
C13         C341   1.486       .  S
N14          C15   1.357       .  A
C15          N16   1.358       .  A
C15         C229   1.464       .  S
N16          C17   1.360       .  A
C17          N18   1.361       .  A
C17         C126   1.465       .  S
C19          N20   1.355       .  A
C19          N24   1.360       .  A
C19         C332   1.487       .  S
N20          C21   1.356       .  A
C21          N22   1.356       .  A
C21         C156   1.459       .  S
N22          C23   1.358       .  A
C23          N24   1.363       .  A
C23         C187   1.464       .  S
C25          N26   1.362       .  A
C25          N30   1.357       .  A
C25         C317   1.504       .  S
N26          C27   1.365       .  A
C27          N28   1.359       .  A
C27         C134   1.474       .  S
N28          C29   1.358       .  A
C29          N30   1.359       .  A
C29         C123   1.465       .  S
C31          N32   1.355       .  A
C31          N36   1.358       .  A
C31         C308   1.478       .  S
N32          C33   1.358       .  A
C33          N34   1.359       .  A
C33         C176   1.463       .  S
N34          C35   1.359       .  A
C35          N36   1.363       .  A
C35          C81   1.467       .  S
C37          N38   1.359       .  A
C37          N42   1.357       .  A
C37         C284   1.494       .  S
N38          C39   1.360       .  A
C39          N40   1.359       .  A
C39         C162   1.466       .  S
N40          C41   1.359       .  A
C41          N42   1.359       .  A
C41         C199   1.466       .  S
C43          N44   1.359       .  A
C43          N48   1.359       .  A
C43         C293   1.494       .  S
N44          C45   1.361       .  A
C45          N46   1.361       .  A
C45         C219   1.471       .  S
N46          C47   1.360       .  A
C47          N48   1.361       .  A
C47         C141   1.471       .  S
C49          N50   1.355       .  A
C49          N54   1.356       .  A
C49         C269   1.472       .  S
N50          C51   1.359       .  A
C51          N52   1.359       .  A
C51         C166   1.463       .  S
N52          C53   1.359       .  A
C53          N54   1.360       .  A
C53          C93   1.466       .  S
C55          N56   1.358       .  A
C55          N60   1.358       .  A
C55         C260   1.501       .  S
N56          C57   1.360       .  A
C57          N58   1.358       .  A
C57         C146   1.467       .  S
N58          C59   1.358       .  A
C59          N60   1.358       .  A
C59         C113   1.463       .  S
C61          N62   1.359       .  A
C61          N66   1.360       .  A
C61         C245   1.492       .  S
N62          C63   1.361       .  A
C63          N64   1.359       .  A
C63         C215   1.469       .  S
N64          C65   1.359       .  A
C65          N66   1.362       .  A
C65          C88   1.469       .  S
C67          N68   1.360       .  A
C67          N72   1.357       .  A
C67         C236   1.492       .  S
N68          C69   1.362       .  A
C69          N70   1.356       .  A
C69         C109   1.464       .  S
N70          C71   1.356       .  A
C71          N72   1.359       .  A
C71         C194   1.459       .  S
C73          N91   1.345       .  A
C73         C110   1.467       .  S
N74          N91   1.324       .  A
N74          N96   1.321       .  A
N74        Co111   2.072       .  S
C75         N100   1.337       .  A
C75         C113   1.452       .  S
C75         H120   1.082       .  S
H76         C117   1.081       .  S
C77         N101   1.347       .  A
C77          C81   1.465       .  S
C77         H106   1.081       .  S
Co78         N96   2.112       .  S
Co78        N118   2.099       .  S
Co78        N461   2.102   1_554  S
Co78        N469   2.113   1_554  S
Co78       Cl122   2.458       .  S
N79         C117   1.336       .  A
N79          N86   1.321       .  A
N79         Co80   2.073       .  S
Co80         N83   2.069       .  S
Co80        N100   2.069       .  S
Co80         N87   2.075       .  S
Co80       Cl497   2.449       .  S
C81         N119   1.344       .  A
N82          N89   1.321       .  A
N82         N112   1.330       .  A
N82        Co115   2.104       .  S
N83         N101   1.320       .  A
N83         N119   1.322       .  A
N84         C113   1.351       .  A
N84          N94   1.327       .  A
H85         C110   1.081       .  S
N86         N107   1.329       .  A
N86        Co453   2.104       .  S
N87         N105   1.322       .  A
N87          N92   1.322       .  A
C88          N92   1.345       .  A
C88         C116   1.465       .  S
N89         C104   1.334       .  A
N89        Co111   2.066       .  S
C90         N118   1.346       .  A
C90          C93   1.463       .  S
C90         H124   1.081       .  S
C93         N114   1.345       .  A
N94         N100   1.320       .  A
N94        Co453   2.093       .  S
N95         C121   1.336       .  A
N95          N97   1.321       .  A
N95        Co111   2.065       .  S
N96         C110   1.348       .  A
N97         N125   1.329       .  A
N97        Co115   2.108       .  S
H98         C121   1.081       .  S
H99         C116   1.081       .  S
N101       Co490   2.101       .  S
N102        N114   1.322       .  A
N102        N118   1.320       .  A
N102       Co111   2.072       .  S
C103        N107   1.353       .  A
C103        C117   1.452       .  S
C104        C123   1.448       .  S
C104        H108   1.082       .  S
N105        C116   1.347       .  A
N105       Co490   2.106       .  S
C109        N125   1.354       .  A
C109        C121   1.448       .  S
Co111      Cl122   2.451       .  S
N112        C123   1.354       .  A
Co115       N476   2.109   1_554  S
Co115       N480   2.102   1_554  S
Co115      Cl122   2.458       .  S
Cl122      Co455   2.450   1_554  S
C126        N144   1.347       .  A
C126        C163   1.460       .  S
N127        N149   1.320       .  A
N127       N1644   1.323       .  A
N127       Co164   2.071       .  S
C128        N153   1.336       .  A
C128        C166   1.451       .  S
C128        H173   1.081       .  S
H129        C170   1.082       .  S
C130       N1654   1.350       .  A
C130        C134   1.470       .  S
C130        H159   1.082       .  S
Co131       N139   2.092       .  S
Co131       N147   2.097       .  S
Co131       N524   2.098   1_554  S
Co131       N546   2.093   1_554  S
Co131      Cl175   2.455       .  S
N132       C1670   1.333       .  A
N132        N139   1.321       .  A
N132       Co133   2.068       .  S
Co133       N136   2.074       .  S
Co133       N153   2.071       .  S
Co133       N140   2.075       .  S
Co133      Cl175   2.449       .  S
C134        N172   1.343       .  A
N135        N142   1.321       .  A
N135       N1665   1.329       .  A
N135       Co543   2.101       .  S
N136        N154   1.321       .  A
N136       N1672   1.323       .  A
N137        C166   1.352       .  A
N137        N147   1.328       .  A
H138        C163   1.082       .  S
N139       N1660   1.328       .  A
N140        N158   1.321       .  A
N140        N145   1.322       .  A
C141        N145   1.346       .  A
C141        C169   1.466       .  S
N142       C1657   1.336       .  A
N142       Co164   2.073       .  S
C143        N171   1.347       .  A
C143        C146   1.464       .  S
C143        H177   1.082       .  S
N144       N1627   1.323       .  A
C146        N167   1.345       .  A
N147        N153   1.321       .  A
N148        C174   1.337       .  A
N148        N150   1.320       .  A
N148       Co164   2.071       .  S
N149       C1663   1.345       .  A
N149       Co506   2.100       .  S
N150        N178   1.328       .  A
N150       Co543   2.099       .  S
H151        C174   1.081       .  S
H152        C169   1.082       .  S
N154       C1630   1.346       .  A
N154       Co168   2.104       .  S
N155        N167   1.322       .  A
N155        N171   1.321       .  A
N155       Co164   2.074       .  S
C156        N160   1.352       .  A
C156        C170   1.449       .  S
C157       N1642   1.335       .  A
C157        C176   1.451       .  S
C157        H161   1.082       .  S
N158        C169   1.348       .  A
N158       Co168   2.104       .  S
N160       N1639   1.328       .  A
C162        N178   1.352       .  A
C162        C174   1.452       .  S
C163       N1649   1.344       .  A
Co164      Cl550   2.451       .  S
N165        C176   1.352       .  A
N165       N1635   1.328       .  A
Co168       N510   2.101   1_554  S
Co168       N525   2.103   1_554  S
Co168      Cl175   2.456       .  S
C170       N1632   1.334       .  A
N171       Co506   2.104       .  S
N172       N1636   1.322       .  A
Cl175      Co539   2.451   1_554  S
C179        N197   1.344       .  A
C179        C216   1.467       .  S
N180        N197   1.322       .  A
N180        N202   1.320       .  A
N180       Co217   2.066       .  S
C181        N206   1.337       .  A
C181        C219   1.453       .  S
C181        H226   1.082       .  S
H182        C223   1.081       .  S
C183        N207   1.346       .  A
C183        C187   1.465       .  S
C183        H212   1.082       .  S
Co184       N192   2.100       .  S
Co184       N577   2.105   1_554  S
Co184      N1349   2.101   1_554  S
Co184       N950   2.110       .  S
Co184      Cl228   2.458       .  S
N185        C223   1.336       .  A
N185        N192   1.321       .  A
N185       Co186   2.073       .  S
Co186       N189   2.064       .  S
Co186       N956   2.067       .  S
Co186       N943   2.078       .  S
Co186      Cl228   2.449       .  S
C187        N225   1.342       .  A
N188        N195   1.321       .  A
N188        N218   1.329       .  A
N188       Co596   2.102       .  S
N189        N207   1.320       .  A
N189        N225   1.321       .  A
N190        C219   1.354       .  A
N190        N200   1.330       .  A
H191        C216   1.081       .  S
N192        N213   1.329       .  A
N193        N211   1.321       .  A
N193        N198   1.320       .  A
N193       Co936   2.065   1_545  S
C194        N198   1.343       .  A
C194        C222   1.462       .  S
N195        C210   1.335       .  A
N195       Co217   2.067       .  S
C196        N224   1.346       .  A
C196        C199   1.463       .  S
C196        H230   1.082       .  S
C199        N220   1.345       .  A
N200        N206   1.321       .  A
N200       Co934   2.104   1_545  S
N201        C227   1.336       .  A
N201        N203   1.321       .  A
N201       Co967   2.066   1_545  S
N202        C216   1.347       .  A
N202       Co559   2.107       .  S
N203        N231   1.330       .  A
N203      Co1346   2.113   1_545  S
H204        C227   1.081       .  S
H205        C222   1.081       .  S
N206       Co936   2.075   1_545  S
N207       Co221   2.103       .  S
N208        N220   1.322       .  A
N208        N224   1.320       .  A
N208       Co967   2.074   1_545  S
C209        N213   1.353       .  A
C209        C223   1.451       .  S
C210        C229   1.450       .  S
C210        H214   1.081       .  S
N211        C222   1.344       .  A
N211       Co971   2.095   1_545  S
C215        N231   1.355       .  A
C215        C227   1.449       .  S
Co217       N951   2.058       .  S
Co217       N958   2.071       .  S
Co217      Cl603   2.446       .  S
N218        C229   1.353       .  A
Co221       N563   2.101   1_554  S
Co221      N1328   2.104   1_554  S
Co221       N961   2.098       .  S
Co221      Cl228   2.457       .  S
N224      Co1309   2.096   1_545  S
Cl228      Co592   2.449   1_554  S
C232        H242   1.084       .  S
C232        C233   1.401       .  A
C232        C237   1.403       .  A
C233        C238   1.489       .  S
C233        C234   1.410       .  A
C234        C235   1.403       .  A
C234        S239   1.798       .  S
C235        H240   1.084       .  S
C235        C236   1.407       .  A
C236        C237   1.421       .  A
C237        S241   1.802       .  S
C238        C243   1.411       .  A
C238        C247   1.403       .  A
S239        H255   1.407       .  S
S241        H252   1.407       .  S
C243        C244   1.406       .  A
C243        S248   1.807       .  S
C244        H249   1.083       .  S
C244        C245   1.407       .  A
C245        C246   1.418       .  A
C246        C247   1.405       .  A
C246        S250   1.803       .  S
C247        H251   1.084       .  S
S248        H253   1.407       .  S
S250        H254   1.407       .  S
C256        H266   1.083       .  S
C256        C257   1.400       .  A
C256        C261   1.402       .  A
C257        C262   1.481       .  S
C257        C258   1.410       .  A
C258        C259   1.400       .  A
C258        S263   1.808       .  S
C259        H264   1.082       .  S
C259        C260   1.412       .  A
C260        C261   1.423       .  A
C261        S265   1.802       .  S
C262        C267   1.409       .  A
C262        C271   1.404       .  A
S263        H279   1.402       .  S
S265        H276   1.408       .  S
C267        C268   1.402       .  A
C267        S272   1.806       .  S
C268        H273   1.083       .  S
C268        C269   1.402       .  A
C269        C270   1.413       .  A
C270        C271   1.402       .  A
C270        S274   1.804       .  S
C271        H275   1.083       .  S
S272        H277   1.407       .  S
S274        H278   1.406       .  S
C280        H290   1.083       .  S
C280        C281   1.401       .  A
C280        C285   1.405       .  A
C281        C286   1.490       .  S
C281        C282   1.412       .  A
C282        C283   1.403       .  A
C282        S287   1.802       .  S
C283        H288   1.084       .  S
C283        C284   1.408       .  A
C284        C285   1.420       .  A
C285        S289   1.809       .  S
C286        C291   1.411       .  A
C286        C295   1.403       .  A
S287        H303   1.405       .  S
S289        H300   1.407       .  S
C291        C292   1.405       .  A
C291        S296   1.807       .  S
C292        H297   1.082       .  S
C292        C293   1.408       .  A
C293        C294   1.419       .  A
C294        C295   1.404       .  A
C294        S298   1.803       .  S
C295        H299   1.084       .  S
S296        H301   1.407       .  S
S298        H302   1.407       .  S
C304        H314   1.084       .  S
C304        C305   1.403       .  A
C304        C309   1.401       .  A
C305        C310   1.488       .  S
C305        C306   1.416       .  A
C306        C307   1.406       .  A
C306        S311   1.804       .  S
C307        H312   1.084       .  S
C307        C308   1.403       .  A
C308        C309   1.411       .  A
C309        S313   1.804       .  S
C310        C315   1.407       .  A
C310        C319   1.402       .  A
S311        H327   1.402       .  S
S313        H324   1.406       .  S
C315        C316   1.406       .  A
C315        S320   1.806       .  S
C316        H321   1.082       .  S
C316        C317   1.413       .  A
C317        C318   1.420       .  A
C318        C319   1.406       .  A
C318        S322   1.802       .  S
C319        H323   1.082       .  S
S320        H325   1.407       .  S
S322        H326   1.408       .  S
C328        H338   1.084       .  S
C328        C329   1.404       .  A
C328        C333   1.403       .  A
C329        C334   1.483       .  S
C329        C330   1.412       .  A
C330        C331   1.399       .  A
C330        S335   1.807       .  S
C331        H336   1.084       .  S
C331        C332   1.407       .  A
C332        C333   1.416       .  A
C333        S337   1.803       .  S
C334        C339   1.410       .  A
C334        C343   1.399       .  A
S335        H351   1.404       .  S
S337        H348   1.406       .  S
C339        C340   1.407       .  A
C339        S344   1.805       .  S
C340        H345   1.083       .  S
C340        C341   1.407       .  A
C341        C342   1.418       .  A
C342        C343   1.397       .  A
C342        S346   1.803       .  S
C343        H347   1.084       .  S
S344        H349   1.407       .  S
S346        H350   1.407       .  S
C352        H362   1.083       .  S
C352        C353   1.398       .  A
C352        C357   1.404       .  A
C353        C358   1.490       .  S
C353        C354   1.416       .  A
C354        C355   1.406       .  A
C354        S359   1.806       .  S
C355        H360   1.084       .  S
C355        C356   1.408       .  A
C356        C357   1.426       .  A
C357        S361   1.811       .  S
C358        C363   1.410       .  A
C358        C367   1.406       .  A
S359        H375   1.401       .  S
S361        H372   1.407       .  S
C363        C364   1.404       .  A
C363        S368   1.807       .  S
C364        H369   1.083       .  S
C364        C365   1.405       .  A
C365        C366   1.416       .  A
C366        C367   1.406       .  A
C366        S370   1.805       .  S
C367        H371   1.084       .  S
S368        H373   1.407       .  S
S370        H374   1.405       .  S
C376        N377   1.362       .  A
C376        N381   1.353       .  A
C376        C731   1.501       .  S
N377        C378   1.364       .  A
C378        N379   1.361       .  A
C378        C448   1.468       .  S
N379        C380   1.358       .  A
C380        N381   1.354       .  A
C380        C584   1.464       .  S
C382        N383   1.361       .  A
C382        N387   1.355       .  A
C382        C740   1.484       .  S
N383        C384   1.365       .  A
C384        N385   1.362       .  A
C384        C554   1.472       .  S
N385        C386   1.359       .  A
C386        N387   1.357       .  A
C386        C478   1.467       .  S
C388        N389   1.356       .  A
C388        N393   1.360       .  A
C388        C716   1.484       .  S
N389        C390   1.357       .  A
C390        N391   1.356       .  A
C390        C604   1.461       .  S
N391        C392   1.359       .  A
C392        N393   1.362       .  A
C392        C501   1.465       .  S
C394        N395   1.355       .  A
C394        N399   1.360       .  A
C394        C707   1.488       .  S
N395        C396   1.357       .  A
C396        N397   1.357       .  A
C396        C531   1.460       .  S
N397        C398   1.358       .  A
C398        N399   1.363       .  A
C398        C562   1.466       .  S
C400        N401   1.360       .  A
C400        N405   1.358       .  A
C400        C692   1.501       .  S
N401        C402   1.363       .  A
C402        N403   1.359       .  A
C402        C509   1.469       .  S
N403        C404   1.358       .  A
C404        N405   1.358       .  A
C404        C498   1.465       .  S
C406        N407   1.355       .  A
C406        N411   1.361       .  A
C406        C683   1.481       .  S
N407        C408   1.358       .  A
C408        N409   1.358       .  A
C408        C551   1.463       .  S
N409        C410   1.360       .  A
C410        N411   1.365       .  A
C410        C456   1.472       .  S
C412        N413   1.358       .  A
C412        N417   1.357       .  A
C412        C659   1.495       .  S
N413        C414   1.360       .  A
C414        N415   1.357       .  A
C414        C537   1.461       .  S
N415        C416   1.357       .  A
C416        N417   1.360       .  A
C416        C574   1.463       .  S
C418        N419   1.357       .  A
C418        N423   1.359       .  A
C418        C668   1.485       .  S
N419        C420   1.358       .  A
C420        N421   1.360       .  A
C420        C594   1.467       .  S
N421        C422   1.361       .  A
C422        N423   1.361       .  A
C422        C516   1.469       .  S
C424        N425   1.356       .  A
C424        N429   1.355       .  A
C424        C644   1.479       .  S
N425        C426   1.361       .  A
C426        N427   1.359       .  A
C426        C541   1.463       .  S
N427        C428   1.359       .  A
C428        N429   1.359       .  A
C428        C468   1.464       .  S
C430        N431   1.357       .  A
C430        N435   1.361       .  A
C430        C635   1.504       .  S
N431        C432   1.359       .  A
C432        N433   1.360       .  A
C432        C521   1.467       .  S
N433        C434   1.359       .  A
C434        N435   1.361       .  A
C434        C488   1.471       .  S
C436        N437   1.360       .  A
C436        N441   1.359       .  A
C436        C620   1.497       .  S
N437        C438   1.362       .  A
C438        N439   1.358       .  A
C438        C590   1.469       .  S
N439        C440   1.358       .  A
C440        N441   1.361       .  A
C440        C463   1.466       .  S
C442        N443   1.358       .  A
C442        N447   1.356       .  A
C442        C611   1.476       .  S
N443        C444   1.361       .  A
C444        N445   1.359       .  A
C444        C484   1.468       .  S
N445        C446   1.359       .  A
C446        N447   1.360       .  A
C446        C569   1.463       .  S
C448        N466   1.346       .  A
C448        C485   1.463       .  S
N449        N466   1.323       .  A
N449        N471   1.320       .  A
N449       Co486   2.076       .  S
C450        N475   1.337       .  A
C450        C488   1.451       .  S
C450        H495   1.082       .  S
H451        C492   1.081       .  S
C452        N476   1.347       .  A
C452        C456   1.466       .  S
C452        H481   1.081       .  S
Co453       N471   2.094       .  S
Co453       N493   2.102       .  S
Co453      Cl497   2.458       .  S
N454        C492   1.335       .  A
N454        N461   1.321       .  A
N454       Co455   2.070       .  S
Co455       N458   2.075       .  S
Co455       N475   2.072       .  S
Co455       N462   2.071       .  S
C456        N494   1.345       .  A
N457        N464   1.322       .  A
N457        N487   1.329       .  A
N457       Co490   2.106       .  S
N458        N476   1.321       .  A
N458        N494   1.324       .  A
N459        C488   1.356       .  A
N459        N469   1.331       .  A
H460        C485   1.081       .  S
N461        N482   1.330       .  A
N462        N480   1.321       .  A
N462        N467   1.321       .  A
C463        N467   1.344       .  A
C463        C491   1.465       .  S
N464        C479   1.335       .  A
N464       Co486   2.067       .  S
C465        N493   1.347       .  A
C465        C468   1.465       .  S
C465        H499   1.081       .  S
C468        N489   1.344       .  A
N469        N475   1.321       .  A
N470        C496   1.338       .  A
N470        N472   1.320       .  A
N470       Co486   2.072       .  S
N471        C485   1.345       .  A
N472        N500   1.329       .  A
N472       Co490   2.103       .  S
H473        C496   1.081       .  S
H474        C491   1.081       .  S
N477        N489   1.320       .  A
N477        N493   1.321       .  A
N477       Co486   2.069       .  S
C478        N482   1.353       .  A
C478        C492   1.451       .  S
C479        C498   1.450       .  S
C479        H483   1.082       .  S
N480        C491   1.347       .  A
C484        N500   1.353       .  A
C484        C496   1.451       .  S
Co486      Cl497   2.448       .  S
N487        C498   1.354       .  A
Co490      Cl497   2.457       .  S
C501        N519   1.347       .  A
C501        C538   1.460       .  S
N502       N2019   1.324       .  A
N502        N524   1.320       .  A
N502       Co539   2.073       .  S
C503        N528   1.335       .  A
C503        C541   1.449       .  S
C503        H548   1.082       .  S
H504        C545   1.082       .  S
C505       N2029   1.348       .  A
C505        C509   1.467       .  S
C505        H534   1.082       .  S
Co506       N514   2.104       .  S
Co506       N522   2.101       .  S
Co506      Cl550   2.456       .  S
N507       C2045   1.335       .  A
N507        N514   1.322       .  A
N507       Co508   2.071       .  S
Co508       N511   2.071       .  S
Co508       N528   2.065       .  S
Co508       N515   2.079       .  S
Co508      Cl550   2.451       .  S
C509        N547   1.343       .  A
N510        N517   1.322       .  A
N510       N2040   1.328       .  A
N511        N529   1.320       .  A
N511       N2047   1.322       .  A
N512        C541   1.353       .  A
N512        N522   1.329       .  A
H513        C538   1.082       .  S
N514       N2035   1.329       .  A
N515        N533   1.321       .  A
N515        N520   1.323       .  A
C516        N520   1.347       .  A
C516        C544   1.462       .  S
N517       C2032   1.335       .  A
N517       Co539   2.070       .  S
C518        N546   1.344       .  A
C518        C521   1.461       .  S
C518        H552   1.082       .  S
N519       N2002   1.324       .  A
C521        N542   1.347       .  A
N522        N528   1.320       .  A
N523        C549   1.334       .  A
N523        N525   1.321       .  A
N523       Co539   2.064       .  S
N524       C2038   1.344       .  A
N525        N553   1.328       .  A
H526        C549   1.082       .  S
H527        C544   1.081       .  S
N529       C2005   1.347       .  A
N529       Co543   2.101       .  S
N530        N542   1.323       .  A
N530        N546   1.320       .  A
N530       Co539   2.079       .  S
C531        N535   1.353       .  A
C531        C545   1.447       .  S
C532       N2017   1.335       .  A
C532        C551   1.450       .  S
C532        H536   1.082       .  S
N533        C544   1.345       .  A
N533       Co543   2.099       .  S
N535       N2014   1.328       .  A
C537        N553   1.353       .  A
C537        C549   1.448       .  S
C538       N2024   1.342       .  A
N540        C551   1.352       .  A
N540       N2010   1.328       .  A
Co543      Cl550   2.456       .  S
C545       N2007   1.333       .  A
N547       N2011   1.321       .  A
C554        N572   1.346       .  A
C554        C591   1.465       .  S
N555        N572   1.324       .  A
N555        N577   1.320       .  A
N555       Co592   2.075       .  S
C556        N581   1.336       .  A
C556        C594   1.452       .  S
C556        H601   1.082       .  S
H557        C598   1.082       .  S
C558        N582   1.346       .  A
C558        C562   1.465       .  S
C558        H587   1.081       .  S
Co559       N567   2.094       .  S
Co559       N974   2.093       .  S
Co559      N1325   2.104       .  S
Co559      Cl603   2.459       .  S
N560        C598   1.335       .  A
N560        N567   1.321       .  A
N560       Co561   2.075       .  S
Co561       N564   2.071       .  S
Co561      N1331   2.077       .  S
Co561      N1318   2.074       .  S
Co561      Cl603   2.448       .  S
C562        N600   1.344       .  A
N563        N570   1.321       .  A
N563        N593   1.329       .  A
N564        N582   1.321       .  A
N564        N600   1.322       .  A
N565        C594   1.353       .  A
N565        N575   1.329       .  A
H566        C591   1.081       .  S
N567        N588   1.329       .  A
N568        N586   1.321       .  A
N568        N573   1.321       .  A
N568      Co1311   2.069   1_545  S
C569        N573   1.344       .  A
C569        C597   1.464       .  S
N570        C585   1.334       .  A
N570       Co592   2.063       .  S
C571        N599   1.347       .  A
C571        C574   1.464       .  S
C571        H605   1.081       .  S
C574        N595   1.343       .  A
N575        N581   1.320       .  A
N575      Co1309   2.098   1_545  S
N576        C602   1.337       .  A
N576        N578   1.320       .  A
N576      Co1342   2.064   1_545  S
N577        C591   1.347       .  A
N578        N606   1.330       .  A
N578       Co971   2.113   1_546  S
H579        C602   1.081       .  S
H580        C597   1.081       .  S
N581      Co1311   2.073   1_545  S
N582       Co596   2.107       .  S
N583        N595   1.320       .  A
N583        N599   1.321       .  A
N583      Co1342   2.067   1_545  S
C584        N588   1.352       .  A
C584        C598   1.452       .  S
C585        C604   1.447       .  S
C585        H589   1.081       .  S
N586        C597   1.346       .  A
N586      Co1346   2.100   1_545  S
C590        N606   1.355       .  A
C590        C602   1.450       .  S
Co592      N1326   2.069       .  S
Co592      N1333   2.073       .  S
N593        C604   1.353       .  A
Co596       N953   2.115       .  S
Co596      N1336   2.098       .  S
Co596      Cl603   2.458       .  S
N599       Co934   2.101   1_546  S
C607        H617   1.084       .  S
C607        C608   1.404       .  A
C607        C612   1.399       .  A
C608        C613   1.489       .  S
C608        C609   1.415       .  A
C609        C610   1.406       .  A
C609        S614   1.803       .  S
C610        H615   1.084       .  S
C610        C611   1.404       .  A
C611        C612   1.412       .  A
C612        S616   1.806       .  S
C613        C618   1.410       .  A
C613        C622   1.402       .  A
S614        H630   1.404       .  S
S616        H627   1.404       .  S
C618        C619   1.405       .  A
C618        S623   1.808       .  S
C619        H624   1.082       .  S
C619        C620   1.409       .  A
C620        C621   1.420       .  A
C621        C622   1.404       .  A
C621        S625   1.803       .  S
C622        H626   1.083       .  S
S623        H628   1.406       .  S
S625        H629   1.408       .  S
C631        H641   1.085       .  S
C631        C632   1.401       .  A
C631        C636   1.403       .  A
C632        C637   1.488       .  S
C632        C633   1.412       .  A
C633        C634   1.402       .  A
C633        S638   1.806       .  S
C634        H639   1.083       .  S
C634        C635   1.411       .  A
C635        C636   1.425       .  A
C636        S640   1.801       .  S
C637        C642   1.411       .  A
C637        C646   1.404       .  A
S638        H654   1.405       .  S
S640        H651   1.408       .  S
C642        C643   1.403       .  A
C642        S647   1.806       .  S
C643        H648   1.083       .  S
C643        C644   1.403       .  A
C644        C645   1.413       .  A
C645        C646   1.403       .  A
C645        S649   1.804       .  S
C646        H650   1.082       .  S
S647        H652   1.407       .  S
S649        H653   1.407       .  S
C655        H665   1.083       .  S
C655        C656   1.400       .  A
C655        C660   1.405       .  A
C656        C661   1.487       .  S
C656        C657   1.412       .  A
C657        C658   1.402       .  A
C657        S662   1.804       .  S
C658        H663   1.084       .  S
C658        C659   1.409       .  A
C659        C660   1.420       .  A
C660        S664   1.808       .  S
C661        C666   1.411       .  A
C661        C670   1.402       .  A
S662        H678   1.404       .  S
S664        H675   1.407       .  S
C666        C667   1.405       .  A
C666        S671   1.807       .  S
C667        H672   1.083       .  S
C667        C668   1.405       .  A
C668        C669   1.416       .  A
C669        C670   1.402       .  A
C669        S673   1.802       .  S
C670        H674   1.084       .  S
S671        H676   1.407       .  S
S673        H677   1.407       .  S
C679        H689   1.084       .  S
C679        C680   1.403       .  A
C679        C684   1.402       .  A
C680        C685   1.488       .  S
C680        C681   1.415       .  A
C681        C682   1.406       .  A
C681        S686   1.803       .  S
C682        H687   1.084       .  S
C682        C683   1.403       .  A
C683        C684   1.414       .  A
C684        S688   1.805       .  S
C685        C690   1.407       .  A
C685        C694   1.403       .  A
S686        H702   1.402       .  S
S688        H699   1.405       .  S
C690        C691   1.404       .  A
C690        S695   1.806       .  S
C691        H696   1.081       .  S
C691        C692   1.411       .  A
C692        C693   1.421       .  A
C693        C694   1.406       .  A
C693        S697   1.803       .  S
C694        H698   1.083       .  S
S695        H700   1.407       .  S
S697        H701   1.408       .  S
C703        H713   1.084       .  S
C703        C704   1.403       .  A
C703        C708   1.404       .  A
C704        C709   1.484       .  S
C704        C705   1.411       .  A
C705        C706   1.399       .  A
C705        S710   1.805       .  S
C706        H711   1.083       .  S
C706        C707   1.407       .  A
C707        C708   1.416       .  A
C708        S712   1.802       .  S
C709        C714   1.410       .  A
C709        C718   1.400       .  A
S710        H726   1.406       .  S
S712        H723   1.407       .  S
C714        C715   1.406       .  A
C714        S719   1.804       .  S
C715        H720   1.083       .  S
C715        C716   1.405       .  A
C716        C717   1.418       .  A
C717        C718   1.400       .  A
C717        S721   1.804       .  S
C718        H722   1.084       .  S
S719        H724   1.407       .  S
S721        H725   1.407       .  S
C727        H737   1.083       .  S
C727        C728   1.399       .  A
C727        C732   1.404       .  A
C728        C733   1.490       .  S
C728        C729   1.416       .  A
C729        C730   1.403       .  A
C729        S734   1.807       .  S
C730        H735   1.084       .  S
C730        C731   1.409       .  A
C731        C732   1.426       .  A
C732        S736   1.811       .  S
C733        C738   1.411       .  A
C733        C742   1.406       .  A
S734        H750   1.401       .  S
S736        H747   1.407       .  S
C738        C739   1.403       .  A
C738        S743   1.808       .  S
C739        H744   1.083       .  S
C739        C740   1.405       .  A
C740        C741   1.414       .  A
C741        C742   1.405       .  A
C741        S745   1.803       .  S
C742        H746   1.084       .  S
S743        H748   1.407       .  S
S745        H749   1.406       .  S
C751        N752   1.362       .  A
C751        N756   1.355       .  A
C751       C1106   1.500       .  S
N752        C753   1.363       .  A
C753        N754   1.358       .  A
C753        C823   1.465       .  S
N754        C755   1.356       .  A
C755        N756   1.356       .  A
C755        C959   1.463       .  S
C757        N758   1.358       .  A
C757        N762   1.352       .  A
C757       C1115   1.475       .  S
N758        C759   1.362       .  A
C759        N760   1.359       .  A
C759        C929   1.462       .  S
N760        C761   1.356       .  A
C761        N762   1.354       .  A
C761        C853   1.455       .  S
C763        N764   1.356       .  A
C763        N768   1.360       .  A
C763       C1091   1.487       .  S
N764        C765   1.357       .  A
C765        N766   1.358       .  A
C765        C979   1.464       .  S
N766        C767   1.360       .  A
C767        N768   1.363       .  A
C767        C876   1.467       .  S
C769        N770   1.355       .  A
C769        N774   1.361       .  A
C769       C1082   1.492       .  S
N770        C771   1.355       .  A
C771        N772   1.359       .  A
C771        C906   1.462       .  S
N772        C773   1.360       .  A
C773        N774   1.365       .  A
C773        C937   1.470       .  S
C775        N776   1.360       .  A
C775        N780   1.356       .  A
C775       C1067   1.500       .  S
N776        C777   1.362       .  A
C777        N778   1.358       .  A
C777        C884   1.468       .  S
N778        C779   1.358       .  A
C779        N780   1.357       .  A
C779        C873   1.460       .  S
C781        N782   1.354       .  A
C781        N786   1.361       .  A
C781       C1058   1.480       .  S
N782        C783   1.356       .  A
C783        N784   1.359       .  A
C783        C926   1.463       .  S
N784        C785   1.360       .  A
C785        N786   1.366       .  A
C785        C831   1.474       .  S
C787        N788   1.362       .  A
C787        N792   1.354       .  A
C787       C1034   1.496       .  S
N788        C789   1.364       .  A
C789        N790   1.360       .  A
C789        C912   1.470       .  S
N790        C791   1.359       .  A
C791        N792   1.357       .  A
C791        C949   1.463       .  S
C793        N794   1.358       .  A
C793        N798   1.361       .  A
C793       C1043   1.493       .  S
N794        C795   1.360       .  A
C795        N796   1.359       .  A
C795        C969   1.468       .  S
N796        C797   1.359       .  A
C797        N798   1.364       .  A
C797        C891   1.471       .  S
C799        N800   1.358       .  A
C799        N804   1.355       .  A
C799       C1019   1.477       .  S
N800        C801   1.361       .  A
C801        N802   1.360       .  A
C801        C916   1.468       .  S
N802        C803   1.359       .  A
C803        N804   1.357       .  A
C803        C843   1.464       .  S
C805        N806   1.357       .  A
C805        N810   1.357       .  A
C805       C1010   1.500       .  S
N806        C807   1.359       .  A
C807        N808   1.356       .  A
C807        C896   1.460       .  S
N808        C809   1.356       .  A
C809        N810   1.357       .  A
C809        C863   1.456       .  S
C811        N812   1.359       .  A
C811        N816   1.359       .  A
C811        C995   1.494       .  S
N812        C813   1.362       .  A
C813        N814   1.357       .  A
C813        C965   1.467       .  S
N814        C815   1.359       .  A
C815        N816   1.361       .  A
C815        C838   1.464       .  S
C817        N818   1.360       .  A
C817        N822   1.357       .  A
C817        C986   1.486       .  S
N818        C819   1.362       .  A
C819        N820   1.360       .  A
C819        C859   1.471       .  S
N820        C821   1.360       .  A
C821        N822   1.359       .  A
C821        C944   1.467       .  S
C823        N841   1.344       .  A
C823        C860   1.463       .  S
N824        N841   1.323       .  A
N824        N846   1.320       .  A
N824       Co861   2.072       .  S
C825        N850   1.333       .  A
C825        C863   1.447       .  S
C825        H870   1.082       .  S
H826        C867   1.082       .  S
C827        N851   1.348       .  A
C827        C831   1.468       .  S
C827        H856   1.082       .  S
Co828       N846   2.096       .  S
Co828      N1211   2.101   1_554  S
Co828       N868   2.095       .  S
Co828      N1219   2.090   1_554  S
Co828      Cl872   2.457       .  S
N829        C867   1.332       .  A
N829        N836   1.321       .  A
N829       Co830   2.063       .  S
Co830       N833   2.072       .  S
Co830       N850   2.062       .  S
Co830       N837   2.073       .  S
Co830     Cl1247   2.448       .  S
C831        N869   1.346       .  A
N832        N839   1.321       .  A
N832        N862   1.327       .  A
N832       Co865   2.095       .  S
N833        N851   1.320       .  A
N833        N869   1.324       .  A
N834        C863   1.351       .  A
N834        N844   1.327       .  A
H835        C860   1.081       .  S
N836        N857   1.327       .  A
N836      Co1203   2.089       .  S
N837        N855   1.320       .  A
N837        N842   1.322       .  A
C838        N842   1.346       .  A
C838        C866   1.462       .  S
N839        C854   1.334       .  A
N839       Co861   2.068       .  S
C840        N868   1.345       .  A
C840        C843   1.461       .  S
C840        H874   1.081       .  S
C843        N864   1.346       .  A
N844        N850   1.321       .  A
N844      Co1203   2.093       .  S
N845        C871   1.338       .  A
N845        N847   1.321       .  A
N845       Co861   2.073       .  S
N846        C860   1.345       .  A
N847        N875   1.329       .  A
N847       Co865   2.105       .  S
H848        C871   1.082       .  S
H849        C866   1.081       .  S
N851      Co1240   2.112       .  S
N852        N864   1.322       .  A
N852        N868   1.321       .  A
N852       Co861   2.076       .  S
C853        N857   1.350       .  A
C853        C867   1.448       .  S
C854        C873   1.450       .  S
C854        H858   1.082       .  S
N855        C866   1.344       .  A
N855      Co1240   2.091       .  S
C859        N875   1.354       .  A
C859        C871   1.452       .  S
Co861      Cl872   2.449       .  S
N862        C873   1.352       .  A
Co865      N1226   2.106   1_554  S
Co865      N1230   2.093   1_554  S
Co865      Cl872   2.455       .  S
Cl872     Co1205   2.448   1_554  S
C876        N894   1.345       .  A
C876        C913   1.463       .  S
N877       N2394   1.323       .  A
N877        N899   1.321       .  A
N877       Co914   2.073       .  S
C878        N903   1.337       .  A
C878        C916   1.451       .  S
C878        H923   1.082       .  S
H879        C920   1.082       .  S
C880       N2404   1.348       .  A
C880        C884   1.466       .  S
C880        H909   1.082       .  S
Co881      N1274   2.102   1_554  S
Co881       N889   2.098       .  S
Co881      N1296   2.091   1_554  S
Co881       N897   2.106       .  S
Co881      Cl925   2.453       .  S
N882       C2420   1.335       .  A
N882        N889   1.320       .  A
N882       Co883   2.068       .  S
Co883       N886   2.065       .  S
Co883       N903   2.068       .  S
Co883       N890   2.070       .  S
Co883      Cl925   2.452       .  S
C884        N922   1.344       .  A
N885        N892   1.322       .  A
N885       N2415   1.329       .  A
N885      Co1293   2.107       .  S
N886        N904   1.321       .  A
N886       N2422   1.321       .  A
N887        C916   1.354       .  A
N887        N897   1.329       .  A
H888        C913   1.082       .  S
N889       N2410   1.329       .  A
N890        N908   1.321       .  A
N890        N895   1.322       .  A
C891        N895   1.345       .  A
C891        C919   1.467       .  S
N892       C2407   1.339       .  A
N892       Co914   2.080       .  S
C893        N921   1.344       .  A
C893        C896   1.460       .  S
C893        H927   1.082       .  S
N894       N2377   1.323       .  A
C896        N917   1.345       .  A
N897        N903   1.320       .  A
N898        C924   1.338       .  A
N898        N900   1.320       .  A
N898       Co914   2.071       .  S
N899       C2413   1.344       .  A
N899      Co1256   2.099       .  S
N900        N928   1.329       .  A
N900      Co1293   2.107       .  S
H901        C924   1.082       .  S
H902        C919   1.082       .  S
N904       C2380   1.346       .  A
N904       Co918   2.102       .  S
N905        N917   1.321       .  A
N905        N921   1.321       .  A
N905       Co914   2.074       .  S
C906        N910   1.350       .  A
C906        C920   1.453       .  S
C907       N2392   1.335       .  A
C907        C926   1.451       .  S
C907        H911   1.082       .  S
N908        C919   1.348       .  A
N908       Co918   2.109       .  S
N910       N2389   1.327       .  A
C912        N928   1.354       .  A
C912        C924   1.451       .  S
C913       N2399   1.345       .  A
Co914     Cl1300   2.455       .  S
N915        C926   1.352       .  A
N915       N2385   1.328       .  A
Co918      N1260   2.101   1_554  S
Co918      N1275   2.100   1_554  S
Co918      Cl925   2.455       .  S
C920       N2382   1.336       .  A
N921      Co1256   2.092       .  S
N922       N2386   1.322       .  A
Cl925     Co1289   2.455   1_554  S
C929        N947   1.345       .  A
C929        C966   1.460       .  S
N930        N947   1.322       .  A
N930        N952   1.320       .  A
N930       Co967   2.070       .  S
C931        N956   1.336       .  A
C931        C969   1.450       .  S
C931        H976   1.082       .  S
H932        C973   1.082       .  S
C933        N957   1.348       .  A
C933        C937   1.467       .  S
C933        H962   1.081       .  S
Co934      N1327   2.099   1_554  S
Co934       N942   2.102       .  S
Co934      Cl978   2.456       .  S
N935        C973   1.336       .  A
N935        N942   1.320       .  A
N935       Co936   2.066       .  S
Co936       N939   2.070       .  S
Co936      Cl978   2.448       .  S
C937        N975   1.344       .  A
N938        N945   1.321       .  A
N938        N968   1.329       .  A
N938      Co1346   2.104       .  S
N939        N957   1.321       .  A
N939        N975   1.322       .  A
N940        C969   1.355       .  A
N940        N950   1.330       .  A
H941        C966   1.081       .  S
N942        N963   1.328       .  A
N943        N961   1.321       .  A
N943        N948   1.323       .  A
C944        N948   1.347       .  A
C944        C972   1.462       .  S
N945        C960   1.335       .  A
N945       Co967   2.068       .  S
C946        N974   1.347       .  A
C946        C949   1.463       .  S
C946        H980   1.081       .  S
C949        N970   1.344       .  A
N950        N956   1.321       .  A
N951        C977   1.333       .  A
N951        N953   1.320       .  A
N952        C966   1.343       .  A
N952      Co1309   2.092       .  S
N953        N981   1.331       .  A
H954        C977   1.082       .  S
H955        C972   1.081       .  S
N957       Co971   2.108       .  S
N958        N970   1.320       .  A
N958        N974   1.319       .  A
C959        N963   1.353       .  A
C959        C973   1.450       .  S
C960        C979   1.449       .  S
C960        H964   1.082       .  S
N961        C972   1.345       .  A
C965        N981   1.357       .  A
C965        C977   1.445       .  S
Co967     Cl1353   2.450       .  S
N968        C979   1.354       .  A
Co971      N1313   2.101   1_554  S
Co971      Cl978   2.456       .  S
Cl978     Co1342   2.449   1_554  S
C982        H992   1.084       .  S
C982        C983   1.402       .  A
C982        C987   1.403       .  A
C983        C988   1.489       .  S
C983        C984   1.411       .  A
C984        C985   1.403       .  A
C984        S989   1.798       .  S
C985        H990   1.084       .  S
C985        C986   1.405       .  A
C986        C987   1.417       .  A
C987        S991   1.803       .  S
C988        C993   1.410       .  A
C988        C997   1.403       .  A
S989       H1005   1.406       .  S
S991       H1002   1.406       .  S
C993        C994   1.405       .  A
C993        S998   1.806       .  S
C994        H999   1.083       .  S
C994        C995   1.407       .  A
C995        C996   1.419       .  A
C996        C997   1.405       .  A
C996       S1000   1.803       .  S
C997       H1001   1.084       .  S
S998       H1003   1.407       .  S
S1000      H1004   1.407       .  S
C1006      H1016   1.084       .  S
C1006      C1007   1.403       .  A
C1006      C1011   1.402       .  A
C1007      C1012   1.488       .  S
C1007      C1008   1.413       .  A
C1008      C1009   1.400       .  A
C1008      S1013   1.808       .  S
C1009      H1014   1.083       .  S
C1009      C1010   1.411       .  A
C1010      C1011   1.421       .  A
C1011      S1015   1.802       .  S
C1012      C1017   1.412       .  A
C1012      C1021   1.403       .  A
S1013      H1029   1.402       .  S
S1015      H1026   1.409       .  S
C1017      C1018   1.405       .  A
C1017      S1022   1.807       .  S
C1018      H1023   1.083       .  S
C1018      C1019   1.404       .  A
C1019      C1020   1.412       .  A
C1020      C1021   1.400       .  A
C1020      S1024   1.804       .  S
C1021      H1025   1.080       .  S
S1022      H1027   1.407       .  S
S1024      H1028   1.406       .  S
C1030      H1040   1.083       .  S
C1030      C1031   1.401       .  A
C1030      C1035   1.408       .  A
C1031      C1036   1.492       .  S
C1031      C1032   1.412       .  A
C1032      C1033   1.403       .  A
C1032      S1037   1.801       .  S
C1033      H1038   1.084       .  S
C1033      C1034   1.406       .  A
C1034      C1035   1.423       .  A
C1035      S1039   1.810       .  S
C1036      C1041   1.411       .  A
C1036      C1045   1.404       .  A
S1037      H1053   1.404       .  S
S1039      H1050   1.406       .  S
C1041      C1042   1.407       .  A
C1041      S1046   1.807       .  S
C1042      H1047   1.082       .  S
C1042      C1043   1.405       .  A
C1043      C1044   1.419       .  A
C1044      C1045   1.407       .  A
C1044      S1048   1.804       .  S
C1045      H1049   1.084       .  S
S1046      H1051   1.406       .  S
S1048      H1052   1.407       .  S
C1054      H1064   1.084       .  S
C1054      C1055   1.401       .  A
C1054      C1059   1.400       .  A
C1055      C1060   1.486       .  S
C1055      C1056   1.416       .  A
C1056      C1057   1.406       .  A
C1056      S1061   1.805       .  S
C1057      H1062   1.084       .  S
C1057      C1058   1.404       .  A
C1058      C1059   1.413       .  A
C1059      S1063   1.804       .  S
C1060      C1065   1.407       .  A
C1060      C1069   1.402       .  A
S1061      H1077   1.403       .  S
S1063      H1074   1.406       .  S
C1065      C1066   1.404       .  A
C1065      S1070   1.806       .  S
C1066      H1071   1.082       .  S
C1066      C1067   1.412       .  A
C1067      C1068   1.420       .  A
C1068      C1069   1.404       .  A
C1068      S1072   1.802       .  S
C1069      H1073   1.083       .  S
S1070      H1075   1.407       .  S
S1072      H1076   1.408       .  S
C1078      H1088   1.084       .  S
C1078      C1079   1.405       .  A
C1078      C1083   1.405       .  A
C1079      C1084   1.487       .  S
C1079      C1080   1.412       .  A
C1080      C1081   1.399       .  A
C1080      S1085   1.806       .  S
C1081      H1086   1.083       .  S
C1081      C1082   1.408       .  A
C1082      C1083   1.417       .  A
C1083      S1087   1.803       .  S
C1084      C1089   1.412       .  A
C1084      C1093   1.400       .  A
S1085      H1101   1.404       .  S
S1087      H1098   1.407       .  S
C1089      C1090   1.409       .  A
C1089      S1094   1.804       .  S
C1090      H1095   1.082       .  S
C1090      C1091   1.407       .  A
C1091      C1092   1.417       .  A
C1092      C1093   1.398       .  A
C1092      S1096   1.803       .  S
C1093      H1097   1.084       .  S
S1094      H1099   1.407       .  S
S1096      H1100   1.407       .  S
C1102      H1112   1.083       .  S
C1102      C1103   1.398       .  A
C1102      C1107   1.403       .  A
C1103      C1108   1.484       .  S
C1103      C1104   1.413       .  A
C1104      C1105   1.402       .  A
C1104      S1109   1.807       .  S
C1105      H1110   1.084       .  S
C1105      C1106   1.410       .  A
C1106      C1107   1.426       .  A
C1107      S1111   1.811       .  S
C1108      C1113   1.411       .  A
C1108      C1117   1.405       .  A
S1109      H1125   1.402       .  S
S1111      H1122   1.406       .  S
C1113      C1114   1.402       .  A
C1113      S1118   1.808       .  S
C1114      H1119   1.083       .  S
C1114      C1115   1.404       .  A
C1115      C1116   1.411       .  A
C1116      C1117   1.401       .  A
C1116      S1120   1.803       .  S
C1117      H1121   1.084       .  S
S1118      H1123   1.407       .  S
S1120      H1124   1.407       .  S
C1126      N1127   1.361       .  A
C1126      N1131   1.354       .  A
C1126      C1481   1.498       .  S
N1127      C1128   1.360       .  A
C1128      N1129   1.359       .  A
C1128      C1198   1.466       .  S
N1129      C1130   1.358       .  A
C1130      N1131   1.355       .  A
C1130      C1334   1.462       .  S
C1132      N1133   1.358       .  A
C1132      N1137   1.354       .  A
C1132      C1490   1.476       .  S
N1133      C1134   1.363       .  A
C1134      N1135   1.357       .  A
C1134      C1304   1.460       .  S
N1135      C1136   1.354       .  A
C1136      N1137   1.356       .  A
C1136      C1228   1.456       .  S
C1138      N1139   1.355       .  A
C1138      N1143   1.361       .  A
C1138      C1466   1.488       .  S
N1139      C1140   1.356       .  A
C1140      N1141   1.358       .  A
C1140      C1354   1.464       .  S
N1141      C1142   1.361       .  A
C1142      N1143   1.365       .  A
C1142      C1251   1.472       .  S
C1144      N1145   1.356       .  A
C1144      N1149   1.361       .  A
C1144      C1457   1.493       .  S
N1145      C1146   1.356       .  A
C1146      N1147   1.359       .  A
C1146      C1281   1.464       .  S
N1147      C1148   1.360       .  A
C1148      N1149   1.366       .  A
C1148      C1312   1.471       .  S
C1150      N1151   1.358       .  A
C1150      N1155   1.355       .  A
C1150      C1442   1.492       .  S
N1151      C1152   1.361       .  A
C1152      N1153   1.357       .  A
C1152      C1259   1.462       .  S
N1153      C1154   1.357       .  A
C1154      N1155   1.355       .  A
C1154      C1248   1.454       .  S
C1156      N1157   1.355       .  A
C1156      N1161   1.363       .  A
C1156      C1433   1.486       .  S
N1157      C1158   1.356       .  A
C1158      N1159   1.357       .  A
C1158      C1301   1.462       .  S
N1159      C1160   1.360       .  A
C1160      N1161   1.366       .  A
C1160      C1206   1.473       .  S
C1162      N1163   1.358       .  A
C1162      N1167   1.360       .  A
C1162      C1409   1.497       .  S
N1163      C1164   1.359       .  A
C1164      N1165   1.357       .  A
C1164      C1287   1.463       .  S
N1165      C1166   1.358       .  A
C1166      N1167   1.362       .  A
C1166      C1324   1.466       .  S
C1168      N1169   1.358       .  A
C1168      N1173   1.359       .  A
C1168      C1418   1.487       .  S
N1169      C1170   1.360       .  A
C1170      N1171   1.362       .  A
C1170      C1344   1.471       .  S
N1171      C1172   1.361       .  A
C1172      N1173   1.361       .  A
C1172      C1266   1.472       .  S
C1174      N1175   1.361       .  A
C1174      N1179   1.356       .  A
C1174      C1394   1.499       .  S
N1175      C1176   1.362       .  A
C1176      N1177   1.360       .  A
C1176      C1291   1.470       .  S
N1177      C1178   1.359       .  A
C1178      N1179   1.357       .  A
C1178      C1218   1.466       .  S
C1180      N1181   1.358       .  A
C1180      N1185   1.352       .  A
C1180      C1385   1.470       .  S
N1181      C1182   1.361       .  A
C1182      N1183   1.361       .  A
C1182      C1271   1.465       .  S
N1183      C1184   1.358       .  A
C1184      N1185   1.354       .  A
C1184      C1238   1.458       .  S
C1186      N1187   1.357       .  A
C1186      N1191   1.357       .  A
C1186      C1370   1.492       .  S
N1187      C1188   1.360       .  A
C1188      N1189   1.358       .  A
C1188      C1340   1.465       .  S
N1189      C1190   1.359       .  A
C1190      N1191   1.359       .  A
C1190      C1213   1.462       .  S
C1192      N1193   1.360       .  A
C1192      N1197   1.358       .  A
C1192      C1361   1.487       .  S
N1193      C1194   1.362       .  A
C1194      N1195   1.358       .  A
C1194      C1234   1.469       .  S
N1195      C1196   1.358       .  A
C1196      N1197   1.360       .  A
C1196      C1319   1.464       .  S
C1198      N1216   1.347       .  A
C1198      C1235   1.461       .  S
N1199      N1216   1.323       .  A
N1199      N1221   1.320       .  A
N1199     Co1236   2.078       .  S
C1200      N1225   1.333       .  A
C1200      C1238   1.449       .  S
C1200      H1245   1.081       .  S
H1201      C1242   1.081       .  S
C1202      N1226   1.345       .  A
C1202      C1206   1.464       .  S
C1202      H1231   1.081       .  S
Co1203     N1221   2.093       .  S
Co1203     N1243   2.094       .  S
Co1203    Cl1247   2.455       .  S
N1204      C1242   1.332       .  A
N1204      N1211   1.321       .  A
N1204     Co1205   2.059       .  S
Co1205     N1208   2.076       .  S
Co1205     N1225   2.067       .  S
Co1205     N1212   2.068       .  S
C1206      N1244   1.347       .  A
N1207      N1214   1.321       .  A
N1207      N1237   1.326       .  A
N1207     Co1240   2.085       .  S
N1208      N1226   1.320       .  A
N1208      N1244   1.325       .  A
N1209      C1238   1.350       .  A
N1209      N1219   1.328       .  A
H1210      C1235   1.081       .  S
N1211      N1232   1.328       .  A
N1212      N1230   1.320       .  A
N1212      N1217   1.321       .  A
C1213      N1217   1.344       .  A
C1213      C1241   1.462       .  S
N1214      C1229   1.334       .  A
N1214     Co1236   2.068       .  S
C1215      N1243   1.346       .  A
C1215      C1218   1.461       .  S
C1215      H1249   1.081       .  S
C1218      N1239   1.347       .  A
N1219      N1225   1.320       .  A
N1220      C1246   1.338       .  A
N1220      N1222   1.322       .  A
N1220     Co1236   2.074       .  S
N1221      C1235   1.344       .  A
N1222      N1250   1.329       .  A
N1222     Co1240   2.110       .  S
H1223      C1246   1.081       .  S
H1224      C1241   1.081       .  S
N1227      N1239   1.322       .  A
N1227      N1243   1.320       .  A
N1227     Co1236   2.077       .  S
C1228      N1232   1.353       .  A
C1228      C1242   1.446       .  S
C1229      C1248   1.450       .  S
C1229      H1233   1.082       .  S
N1230      C1241   1.345       .  A
C1234      N1250   1.354       .  A
C1234      C1246   1.452       .  S
Co1236    Cl1247   2.451       .  S
N1237      C1248   1.349       .  A
Co1240    Cl1247   2.453       .  S
C1251      N1269   1.346       .  A
C1251      C1288   1.465       .  S
N1252      N2769   1.325       .  A
N1252      N1274   1.321       .  A
N1252     Co1289   2.084       .  S
C1253      N1278   1.338       .  A
C1253      C1291   1.453       .  S
C1253      H1298   1.082       .  S
H1254      C1295   1.082       .  S
C1255      N2779   1.346       .  A
C1255      C1259   1.464       .  S
C1255      H1284   1.082       .  S
Co1256     N1264   2.099       .  S
Co1256     N1272   2.104       .  S
Co1256    Cl1300   2.456       .  S
N1257      C2795   1.336       .  A
N1257      N1264   1.321       .  A
N1257     Co1258   2.075       .  S
Co1258     N1261   2.066       .  S
Co1258     N1278   2.071       .  S
Co1258     N1265   2.075       .  S
Co1258    Cl1300   2.451       .  S
C1259      N1297   1.342       .  A
N1260      N1267   1.322       .  A
N1260      N2790   1.329       .  A
N1261      N1279   1.321       .  A
N1261      N2797   1.320       .  A
N1262      C1291   1.354       .  A
N1262      N1272   1.329       .  A
H1263      C1288   1.082       .  S
N1264      N2785   1.328       .  A
N1265      N1283   1.321       .  A
N1265      N1270   1.322       .  A
C1266      N1270   1.346       .  A
C1266      C1294   1.466       .  S
N1267      C2782   1.335       .  A
N1267     Co1289   2.070       .  S
C1268      N1296   1.343       .  A
C1268      C1271   1.459       .  S
C1268      H1302   1.082       .  S
N1269      N2752   1.324       .  A
C1271      N1292   1.348       .  A
N1272      N1278   1.320       .  A
N1273      C1299   1.335       .  A
N1273      N1275   1.322       .  A
N1273     Co1289   2.071       .  S
N1274      C2788   1.345       .  A
N1275      N1303   1.328       .  A
H1276      C1299   1.082       .  S
H1277      C1294   1.082       .  S
N1279      C2755   1.348       .  A
N1279     Co1293   2.106       .  S
N1280      N1292   1.324       .  A
N1280      N1296   1.321       .  A
N1280     Co1289   2.080       .  S
C1281      N1285   1.352       .  A
C1281      C1295   1.452       .  S
C1282      N2767   1.334       .  A
C1282      C1301   1.449       .  S
C1282      H1286   1.082       .  S
N1283      C1294   1.348       .  A
N1283     Co1293   2.107       .  S
N1285      N2764   1.328       .  A
C1287      N1303   1.352       .  A
C1287      C1299   1.450       .  S
C1288      N2774   1.347       .  A
N1290      C1301   1.352       .  A
N1290      N2760   1.328       .  A
Co1293    Cl1300   2.457       .  S
C1295      N2757   1.336       .  A
N1297      N2761   1.320       .  A
C1304      N1322   1.342       .  A
C1304      C1341   1.463       .  S
N1305      N1322   1.321       .  A
N1305      N1327   1.320       .  A
N1305     Co1342   2.060       .  S
C1306      N1331   1.339       .  A
C1306      C1344   1.454       .  S
C1306      H1351   1.082       .  S
H1307      C1348   1.082       .  S
C1308      N1332   1.349       .  A
C1308      C1312   1.468       .  S
C1308      H1337   1.081       .  S
Co1309     N1317   2.094       .  S
Co1309    Cl1353   2.455       .  S
N1310      C1348   1.336       .  A
N1310      N1317   1.320       .  A
N1310     Co1311   2.071       .  S
Co1311     N1314   2.069       .  S
Co1311    Cl1353   2.448       .  S
C1312      N1350   1.343       .  A
N1313      N1320   1.320       .  A
N1313      N1343   1.329       .  A
N1314      N1332   1.321       .  A
N1314      N1350   1.322       .  A
N1315      C1344   1.353       .  A
N1315      N1325   1.329       .  A
H1316      C1341   1.081       .  S
N1317      N1338   1.327       .  A
N1318      N1336   1.321       .  A
N1318      N1323   1.322       .  A
C1319      N1323   1.345       .  A
C1319      C1347   1.463       .  S
N1320      C1335   1.335       .  A
N1320     Co1342   2.066       .  S
C1321      N1349   1.346       .  A
C1321      C1324   1.464       .  S
C1321      H1355   1.081       .  S
C1324      N1345   1.345       .  A
N1325      N1331   1.321       .  A
N1326      C1352   1.335       .  A
N1326      N1328   1.321       .  A
N1327      C1341   1.344       .  A
N1328      N1356   1.329       .  A
H1329      C1352   1.081       .  S
H1330      C1347   1.081       .  S
N1332     Co1346   2.111       .  S
N1333      N1345   1.322       .  A
N1333      N1349   1.321       .  A
C1334      N1338   1.351       .  A
C1334      C1348   1.452       .  S
C1335      C1354   1.449       .  S
C1335      H1339   1.082       .  S
N1336      C1347   1.345       .  A
C1340      N1356   1.354       .  A
C1340      C1352   1.449       .  S
N1343      C1354   1.353       .  A
Co1346    Cl1353   2.457       .  S
C1357      H1367   1.084       .  S
C1357      C1358   1.402       .  A
C1357      C1362   1.402       .  A
C1358      C1363   1.487       .  S
C1358      C1359   1.413       .  A
C1359      C1360   1.404       .  A
C1359      S1364   1.803       .  S
C1360      H1365   1.084       .  S
C1360      C1361   1.406       .  A
C1361      C1362   1.417       .  A
C1362      S1366   1.803       .  S
C1363      C1368   1.409       .  A
C1363      C1372   1.402       .  A
S1364      H1380   1.404       .  S
S1366      H1377   1.407       .  S
C1368      C1369   1.404       .  A
C1368      S1373   1.807       .  S
C1369      H1374   1.082       .  S
C1369      C1370   1.408       .  A
C1370      C1371   1.419       .  A
C1371      C1372   1.404       .  A
C1371      S1375   1.804       .  S
C1372      H1376   1.084       .  S
S1373      H1378   1.407       .  S
S1375      H1379   1.408       .  S
C1381      H1391   1.083       .  S
C1381      C1382   1.404       .  A
C1381      C1386   1.401       .  A
C1382      C1387   1.480       .  S
C1382      C1383   1.411       .  A
C1383      C1384   1.397       .  A
C1383      S1388   1.803       .  S
C1384      H1389   1.085       .  S
C1384      C1385   1.402       .  A
C1385      C1386   1.411       .  A
C1386      S1390   1.804       .  S
C1387      C1392   1.406       .  A
C1387      C1396   1.398       .  A
S1388      H1404   1.406       .  S
S1390      H1401   1.406       .  S
C1392      C1393   1.404       .  A
C1392      S1397   1.806       .  S
C1393      H1398   1.082       .  S
C1393      C1394   1.411       .  A
C1394      C1395   1.425       .  A
C1395      C1396   1.400       .  A
C1395      S1399   1.803       .  S
C1396      H1400   1.084       .  S
S1397      H1402   1.407       .  S
S1399      H1403   1.408       .  S
C1405      H1415   1.083       .  S
C1405      C1406   1.402       .  A
C1405      C1410   1.408       .  A
C1406      C1411   1.488       .  S
C1406      C1407   1.410       .  A
C1407      C1408   1.401       .  A
C1407      S1412   1.804       .  S
C1408      H1413   1.083       .  S
C1408      C1409   1.410       .  A
C1409      C1410   1.420       .  A
C1410      S1414   1.809       .  S
C1411      C1416   1.410       .  A
C1411      C1420   1.403       .  A
S1412      H1428   1.406       .  S
S1414      H1425   1.406       .  S
C1416      C1417   1.405       .  A
C1416      S1421   1.807       .  S
C1417      H1422   1.083       .  S
C1417      C1418   1.405       .  A
C1418      C1419   1.417       .  A
C1419      C1420   1.405       .  A
C1419      S1423   1.804       .  S
C1420      H1424   1.084       .  S
S1421      H1426   1.406       .  S
S1423      H1427   1.407       .  S
C1429      H1439   1.084       .  S
C1429      C1430   1.400       .  A
C1429      C1434   1.400       .  A
C1430      C1435   1.487       .  S
C1430      C1431   1.414       .  A
C1431      C1432   1.404       .  A
C1431      S1436   1.800       .  S
C1432      H1437   1.084       .  S
C1432      C1433   1.404       .  A
C1433      C1434   1.419       .  A
C1434      S1438   1.803       .  S
C1435      C1440   1.409       .  A
C1435      C1444   1.403       .  A
S1436      H1452   1.406       .  S
S1438      H1449   1.406       .  S
C1440      C1441   1.403       .  A
C1440      S1445   1.808       .  S
C1441      H1446   1.082       .  S
C1441      C1442   1.410       .  A
C1442      C1443   1.418       .  A
C1443      C1444   1.402       .  A
C1443      S1447   1.803       .  S
C1444      H1448   1.082       .  S
S1445      H1450   1.407       .  S
S1447      H1451   1.408       .  S
C1453      H1463   1.084       .  S
C1453      C1454   1.407       .  A
C1453      C1458   1.408       .  A
C1454      C1459   1.489       .  S
C1454      C1455   1.412       .  A
C1455      C1456   1.399       .  A
C1455      S1460   1.806       .  S
C1456      H1461   1.083       .  S
C1456      C1457   1.407       .  A
C1457      C1458   1.418       .  A
C1458      S1462   1.803       .  S
C1459      C1464   1.413       .  A
C1459      C1468   1.399       .  A
S1460      H1476   1.405       .  S
S1462      H1473   1.407       .  S
C1464      C1465   1.410       .  A
C1464      S1469   1.802       .  S
C1465      H1470   1.083       .  S
C1465      C1466   1.406       .  A
C1466      C1467   1.418       .  A
C1467      C1468   1.399       .  A
C1467      S1471   1.803       .  S
C1468      H1472   1.084       .  S
S1469      H1474   1.407       .  S
S1471      H1475   1.408       .  S
C1477      H1487   1.084       .  S
C1477      C1478   1.399       .  A
C1477      C1482   1.404       .  A
C1478      C1483   1.483       .  S
C1478      C1479   1.414       .  A
C1479      C1480   1.399       .  A
C1479      S1484   1.808       .  S
C1480      H1485   1.084       .  S
C1480      C1481   1.409       .  A
C1481      C1482   1.425       .  A
C1482      S1486   1.812       .  S
C1483      C1488   1.410       .  A
C1483      C1492   1.405       .  A
S1484      H1500   1.401       .  S
S1486      H1497   1.406       .  S
C1488      C1489   1.402       .  A
C1488      S1493   1.807       .  S
C1489      H1494   1.083       .  S
C1489      C1490   1.403       .  A
C1490      C1491   1.412       .  A
C1491      C1492   1.403       .  A
C1491      S1495   1.803       .  S
C1492      H1496   1.084       .  S
S1493      H1498   1.407       .  S
S1495      H1499   1.406       .  S
C1501      N1502   1.363       .  A
C1501      N1506   1.355       .  A
C1501      C1856   1.503       .  S
N1502      C1503   1.365       .  A
C1503      N1504   1.360       .  A
C1503      C1573   1.471       .  S
N1504      C1505   1.358       .  A
C1505      N1506   1.356       .  A
C1505      C1709   1.467       .  S
C1507      N1508   1.359       .  A
C1507      N1512   1.353       .  A
C1507      C1865   1.481       .  S
N1508      C1509   1.363       .  A
C1509      N1510   1.361       .  A
C1509      C1679   1.467       .  S
N1510      C1511   1.358       .  A
C1511      N1512   1.355       .  A
C1511      C1603   1.461       .  S
C1513      N1514   1.355       .  A
C1513      N1518   1.361       .  A
C1513      C1841   1.490       .  S
N1514      C1515   1.356       .  A
C1515      N1516   1.357       .  A
C1515      C1729   1.462       .  S
N1516      C1517   1.359       .  A
C1517      N1518   1.364       .  A
C1517      C1626   1.466       .  S
C1519      N1520   1.354       .  A
C1519      N1524   1.359       .  A
C1519      C1832   1.485       .  S
N1520      C1521   1.356       .  A
C1521      N1522   1.357       .  A
C1521      C1656   1.459       .  S
N1522      C1523   1.359       .  A
C1523      N1524   1.363       .  A
C1523      C1687   1.464       .  S
C1525      N1526   1.361       .  A
C1525      N1530   1.358       .  A
C1525      C1817   1.499       .  S
N1526      C1527   1.364       .  A
C1527      N1528   1.359       .  A
C1527      C1634   1.469       .  S
N1528      C1529   1.358       .  A
C1529      N1530   1.358       .  A
C1529      C1623   1.465       .  S
C1531      N1532   1.356       .  A
C1531      N1536   1.358       .  A
C1531      C1808   1.477       .  S
N1532      C1533   1.360       .  A
C1533      N1534   1.360       .  A
C1533      C1676   1.466       .  S
N1534      C1535   1.360       .  A
C1535      N1536   1.361       .  A
C1535      C1581   1.469       .  S
C1537      N1538   1.359       .  A
C1537      N1542   1.354       .  A
C1537      C1784   1.492       .  S
N1538      C1539   1.360       .  A
C1539      N1540   1.357       .  A
C1539      C1662   1.462       .  S
N1540      C1541   1.357       .  A
C1541      N1542   1.357       .  A
C1541      C1699   1.458       .  S
C1543      N1544   1.357       .  A
C1543      N1548   1.357       .  A
C1543      C1793   1.482       .  S
N1544      C1545   1.359       .  A
C1545      N1546   1.358       .  A
C1545      C1719   1.464       .  S
N1546      C1547   1.358       .  A
C1547      N1548   1.359       .  A
C1547      C1641   1.464       .  S
C1549      N1550   1.355       .  A
C1549      N1554   1.355       .  A
C1549      C1769   1.472       .  S
N1550      C1551   1.359       .  A
C1551      N1552   1.358       .  A
C1551      C1666   1.461       .  S
N1552      C1553   1.358       .  A
C1553      N1554   1.358       .  A
C1553      C1593   1.461       .  S
C1555      N1556   1.357       .  A
C1555      N1560   1.359       .  A
C1555      C1760   1.501       .  S
N1556      C1557   1.359       .  A
C1557      N1558   1.359       .  A
C1557      C1646   1.466       .  S
N1558      C1559   1.359       .  A
C1559      N1560   1.359       .  A
C1559      C1613   1.466       .  S
C1561      N1562   1.357       .  A
C1561      N1566   1.359       .  A
C1561      C1745   1.492       .  S
N1562      C1563   1.359       .  A
C1563      N1564   1.359       .  A
C1563      C1715   1.465       .  S
N1564      C1565   1.359       .  A
C1565      N1566   1.362       .  A
C1565      C1588   1.468       .  S
C1567      N1568   1.360       .  A
C1567      N1572   1.357       .  A
C1567      C1736   1.486       .  S
N1568      C1569   1.362       .  A
C1569      N1570   1.360       .  A
C1569      C1609   1.472       .  S
N1570      C1571   1.360       .  A
C1571      N1572   1.359       .  A
C1571      C1694   1.467       .  S
C1573      N1591   1.344       .  A
C1573      C1610   1.467       .  S
N1574      N1591   1.323       .  A
N1574      N1596   1.320       .  A
N1574     Co1611   2.072       .  S
C1575      N1600   1.336       .  A
C1575      C1613   1.451       .  S
C1575      H1620   1.082       .  S
H1576      C1617   1.082       .  S
C1577      N1601   1.347       .  A
C1577      C1581   1.464       .  S
C1577      H1606   1.081       .  S
Co1578     N1596   2.106       .  S
Co1578     N1961   2.099   1_554  S
Co1578     N1618   2.093       .  S
Co1578     N1969   2.102   1_554  S
Co1578    Cl1622   2.456       .  S
N1579      C1617   1.333       .  A
N1579      N1586   1.321       .  A
N1579     Co1580   2.066       .  S
Co1580     N1583   2.073       .  S
Co1580     N1600   2.070       .  S
Co1580     N1587   2.068       .  S
Co1580    Cl1997   2.448       .  S
C1581      N1619   1.346       .  A
N1582      N1589   1.321       .  A
N1582      N1612   1.329       .  A
N1582     Co1615   2.102       .  S
N1583      N1601   1.320       .  A
N1583      N1619   1.323       .  A
N1584      C1613   1.353       .  A
N1584      N1594   1.329       .  A
H1585      C1610   1.081       .  S
N1586      N1607   1.329       .  A
N1586     Co1953   2.096       .  S
N1587      N1605   1.321       .  A
N1587      N1592   1.321       .  A
C1588      N1592   1.343       .  A
C1588      C1616   1.467       .  S
N1589      C1604   1.335       .  A
N1589     Co1611   2.068       .  S
C1590      N1618   1.344       .  A
C1590      C1593   1.460       .  S
C1590      H1624   1.081       .  S
C1593      N1614   1.345       .  A
N1594      N1600   1.320       .  A
N1594     Co1953   2.100       .  S
N1595      C1621   1.339       .  A
N1595      N1597   1.321       .  A
N1595     Co1611   2.075       .  S
N1596      C1610   1.348       .  A
N1597      N1625   1.329       .  A
N1597     Co1615   2.107       .  S
H1598      C1621   1.082       .  S
H1599      C1616   1.081       .  S
N1601     Co1990   2.105       .  S
N1602      N1614   1.321       .  A
N1602      N1618   1.321       .  A
N1602     Co1611   2.072       .  S
C1603      N1607   1.352       .  A
C1603      C1617   1.449       .  S
C1604      C1623   1.450       .  S
C1604      H1608   1.082       .  S
N1605      C1616   1.348       .  A
N1605     Co1990   2.108       .  S
C1609      N1625   1.354       .  A
C1609      C1621   1.454       .  S
Co1611    Cl1622   2.452       .  S
N1612      C1623   1.353       .  A
Co1615     N1976   2.104   1_554  S
Co1615     N1980   2.099   1_554  S
Co1615    Cl1622   2.454       .  S
Cl1622    Co1955   2.454   1_554  S
C1626      N1644   1.345       .  A
C1626      C1663   1.463       .  S
N1627      N1649   1.320       .  A
N1627     Co1664   2.077   1_455  S
C1628      N1653   1.335       .  A
C1628      C1666   1.449       .  S
C1628      H1673   1.082       .  S
H1629      C1670   1.082       .  S
C1630      C1634   1.465       .  S
C1630      H1659   1.082       .  S
Co1631     N2024   2.092   1_654  S
Co1631     N1639   2.096   1_655  S
Co1631     N2046   2.092   1_554  S
Co1631     N1647   2.095       .  S
Co1631    Cl1675   2.454       .  S
N1632      N1639   1.320       .  A
N1632     Co1633   2.063   1_455  S
Co1633     N1636   2.067   1_655  S
Co1633     N1653   2.065       .  S
Co1633     N1640   2.066       .  S
Co1633    Cl1675   2.449       .  S
C1634      N1672   1.345       .  A
N1635      N1642   1.322       .  A
N1635     Co2043   2.099   1_455  S
N1636      N1654   1.321       .  A
N1637      C1666   1.352       .  A
N1637      N1647   1.327       .  A
H1638      C1663   1.082       .  S
N1640      N1658   1.321       .  A
N1640      N1645   1.321       .  A
C1641      N1645   1.344       .  A
C1641      C1669   1.464       .  S
N1642     Co1664   2.071   1_455  S
C1643      N1671   1.346       .  A
C1643      C1646   1.463       .  S
C1643      H1677   1.082       .  S
C1646      N1667   1.346       .  A
N1647      N1653   1.320       .  A
N1648      C1674   1.336       .  A
N1648      N1650   1.321       .  A
N1648     Co1664   2.069       .  S
N1649     Co2006   2.094   1_455  S
N1650      N1678   1.327       .  A
N1650     Co2043   2.100       .  S
H1651      C1674   1.081       .  S
H1652      C1669   1.082       .  S
N1654     Co1668   2.119   1_455  S
N1655      N1667   1.322       .  A
N1655      N1671   1.321       .  A
N1655     Co1664   2.076       .  S
C1656      N1660   1.351       .  A
C1656      C1670   1.449       .  S
C1657      C1676   1.451       .  S
C1657      H1661   1.082       .  S
N1658      C1669   1.346       .  A
N1658     Co1668   2.101       .  S
C1662      N1678   1.352       .  A
C1662      C1674   1.450       .  S
Co1664    Cl2050   2.449       .  S
N1665      C1676   1.353       .  A
Co1668     N2010   2.099   1_654  S
Co1668     N2025   2.115   1_554  S
Co1668    Cl1675   2.457       .  S
N1671     Co2006   2.099       .  S
Cl1675    Co2039   2.451   1_554  S
C1679      N1697   1.346       .  A
C1679      C1716   1.462       .  S
N1680      N1697   1.323       .  A
N1680      N1702   1.320       .  A
N1680     Co1717   2.076       .  S
C1681      N1706   1.337       .  A
C1681      C1719   1.451       .  S
C1681      H1726   1.082       .  S
H1682      C1723   1.082       .  S
C1683      N1707   1.346       .  A
C1683      C1687   1.465       .  S
C1683      H1712   1.081       .  S
Co1684     N2077   2.090   1_554  S
Co1684     N1692   2.102       .  S
Co1684     N2849   2.101   1_554  S
Co1684     N2450   2.094       .  S
Co1684    Cl1728   2.456       .  S
N1685      C1723   1.337       .  A
N1685      N1692   1.321       .  A
N1685     Co1686   2.075       .  S
Co1686     N1689   2.064       .  S
Co1686     N2456   2.068       .  S
Co1686     N2443   2.079       .  S
Co1686    Cl1728   2.449       .  S
C1687      N1725   1.343       .  A
N1688      N1695   1.321       .  A
N1688      N1718   1.329       .  A
N1688     Co2096   2.101       .  S
N1689      N1707   1.321       .  A
N1689      N1725   1.321       .  A
N1690      C1719   1.353       .  A
N1690      N1700   1.328       .  A
H1691      C1716   1.081       .  S
N1692      N1713   1.329       .  A
N1693      N1711   1.321       .  A
N1693      N1698   1.323       .  A
N1693     Co2436   2.079   1_545  S
C1694      N1698   1.346       .  A
C1694      C1722   1.462       .  S
N1695      C1710   1.333       .  A
N1695     Co1717   2.065       .  S
C1696      N1724   1.344       .  A
C1696      C1699   1.461       .  S
C1696      H1730   1.081       .  S
C1699      N1720   1.344       .  A
N1700      N1706   1.321       .  A
N1700     Co2434   2.101   1_545  S
N1701      C1727   1.336       .  A
N1701      N1703   1.321       .  A
N1701     Co2467   2.069   1_545  S
N1702      C1716   1.345       .  A
N1702     Co2059   2.096       .  S
N1703      N1731   1.329       .  A
N1703     Co2846   2.102   1_545  S
H1704      C1727   1.082       .  S
H1705      C1722   1.081       .  S
N1706     Co2436   2.071   1_545  S
N1707     Co1721   2.103       .  S
N1708      N1720   1.320       .  A
N1708      N1724   1.320       .  A
N1708     Co2467   2.067   1_545  S
C1709      N1713   1.353       .  A
C1709      C1723   1.453       .  S
C1710      C1729   1.448       .  S
C1710      H1714   1.082       .  S
N1711      C1722   1.346       .  A
N1711     Co2471   2.098   1_545  S
C1715      N1731   1.353       .  A
C1715      C1727   1.450       .  S
Co1717     N2451   2.072       .  S
Co1717     N2458   2.068       .  S
Co1717    Cl2103   2.446       .  S
N1718      C1729   1.353       .  A
Co1721     N2063   2.100   1_554  S
Co1721     N2828   2.107   1_554  S
Co1721     N2461   2.097       .  S
Co1721    Cl1728   2.457       .  S
N1724     Co2809   2.090   1_545  S
Cl1728    Co2092   2.448   1_554  S
C1732      H1742   1.084       .  S
C1732      C1733   1.402       .  A
C1732      C1737   1.402       .  A
C1733      C1738   1.486       .  S
C1733      C1734   1.412       .  A
C1734      C1735   1.403       .  A
C1734      S1739   1.800       .  S
C1735      H1740   1.084       .  S
C1735      C1736   1.405       .  A
C1736      C1737   1.417       .  A
C1737      S1741   1.803       .  S
C1738      C1743   1.409       .  A
C1738      C1747   1.402       .  A
S1739      H1755   1.405       .  S
S1741      H1752   1.407       .  S
C1743      C1744   1.404       .  A
C1743      S1748   1.807       .  S
C1744      H1749   1.082       .  S
C1744      C1745   1.407       .  A
C1745      C1746   1.419       .  A
C1746      C1747   1.405       .  A
C1746      S1750   1.804       .  S
C1747      H1751   1.084       .  S
S1748      H1753   1.407       .  S
S1750      H1754   1.407       .  S
C1756      H1766   1.084       .  S
C1756      C1757   1.402       .  A
C1756      C1761   1.402       .  A
C1757      C1762   1.485       .  S
C1757      C1758   1.413       .  A
C1758      C1759   1.400       .  A
C1758      S1763   1.808       .  S
C1759      H1764   1.082       .  S
C1759      C1760   1.411       .  A
C1760      C1761   1.422       .  A
C1761      S1765   1.802       .  S
C1762      C1767   1.412       .  A
C1762      C1771   1.404       .  A
S1763      H1779   1.402       .  S
S1765      H1776   1.408       .  S
C1767      C1768   1.404       .  A
C1767      S1772   1.807       .  S
C1768      H1773   1.083       .  S
C1768      C1769   1.403       .  A
C1769      C1770   1.411       .  A
C1770      C1771   1.400       .  A
C1770      S1774   1.803       .  S
C1771      H1775   1.083       .  S
S1772      H1777   1.407       .  S
S1774      H1778   1.406       .  S
C1780      H1790   1.083       .  S
C1780      C1781   1.400       .  A
C1780      C1785   1.404       .  A
C1781      C1786   1.481       .  S
C1781      C1782   1.409       .  A
C1782      C1783   1.399       .  A
C1782      S1787   1.803       .  S
C1783      H1788   1.084       .  S
C1783      C1784   1.408       .  A
C1784      C1785   1.423       .  A
C1785      S1789   1.811       .  S
C1786      C1791   1.410       .  A
C1786      C1795   1.401       .  A
S1787      H1803   1.405       .  S
S1789      H1800   1.407       .  S
C1791      C1792   1.403       .  A
C1791      S1796   1.808       .  S
C1792      H1797   1.083       .  S
C1792      C1793   1.406       .  A
C1793      C1794   1.416       .  A
C1794      C1795   1.400       .  A
C1794      S1798   1.803       .  S
C1795      H1799   1.084       .  S
S1796      H1801   1.407       .  S
S1798      H1802   1.407       .  S
C1804      H1814   1.084       .  S
C1804      C1805   1.404       .  A
C1804      C1809   1.400       .  A
C1805      C1810   1.489       .  S
C1805      C1806   1.417       .  A
C1806      C1807   1.406       .  A
C1806      S1811   1.805       .  S
C1807      H1812   1.084       .  S
C1807      C1808   1.404       .  A
C1808      C1809   1.412       .  A
C1809      S1813   1.805       .  S
C1810      C1815   1.408       .  A
C1810      C1819   1.403       .  A
S1811      H1827   1.402       .  S
S1813      H1824   1.404       .  S
C1815      C1816   1.404       .  A
C1815      S1820   1.807       .  S
C1816      H1821   1.082       .  S
C1816      C1817   1.410       .  A
C1817      C1818   1.420       .  A
C1818      C1819   1.406       .  A
C1818      S1822   1.802       .  S
C1819      H1823   1.082       .  S
S1820      H1825   1.407       .  S
S1822      H1826   1.408       .  S
C1828      H1838   1.084       .  S
C1828      C1829   1.405       .  A
C1828      C1833   1.404       .  A
C1829      C1834   1.485       .  S
C1829      C1830   1.413       .  A
C1830      C1831   1.398       .  A
C1830      S1835   1.806       .  S
C1831      H1836   1.084       .  S
C1831      C1832   1.405       .  A
C1832      C1833   1.415       .  A
C1833      S1837   1.802       .  S
C1834      C1839   1.411       .  A
C1834      C1843   1.398       .  A
S1835      H1851   1.405       .  S
S1837      H1848   1.407       .  S
C1839      C1840   1.408       .  A
C1839      S1844   1.805       .  S
C1840      H1845   1.082       .  S
C1840      C1841   1.408       .  A
C1841      C1842   1.420       .  A
C1842      C1843   1.398       .  A
C1842      S1846   1.803       .  S
C1843      H1847   1.084       .  S
S1844      H1849   1.406       .  S
S1846      H1850   1.408       .  S
C1852      H1862   1.084       .  S
C1852      C1853   1.399       .  A
C1852      C1857   1.403       .  A
C1853      C1858   1.490       .  S
C1853      C1854   1.415       .  A
C1854      C1855   1.405       .  A
C1854      S1859   1.807       .  S
C1855      H1860   1.084       .  S
C1855      C1856   1.410       .  A
C1856      C1857   1.426       .  A
C1857      S1861   1.810       .  S
C1858      C1863   1.412       .  A
C1858      C1867   1.407       .  A
S1859      H1875   1.403       .  S
S1861      H1872   1.407       .  S
C1863      C1864   1.402       .  A
C1863      S1868   1.808       .  S
C1864      H1869   1.083       .  S
C1864      C1865   1.405       .  A
C1865      C1866   1.413       .  A
C1866      C1867   1.404       .  A
C1866      S1870   1.804       .  S
C1867      H1871   1.084       .  S
S1868      H1873   1.407       .  S
S1870      H1874   1.406       .  S
C1876      N1877   1.362       .  A
C1876      N1881   1.354       .  A
C1876      C2231   1.499       .  S
N1877      C1878   1.363       .  A
C1878      N1879   1.359       .  A
C1878      C1948   1.466       .  S
N1879      C1880   1.356       .  A
C1880      N1881   1.354       .  A
C1880      C2084   1.461       .  S
C1882      N1883   1.358       .  A
C1882      N1887   1.356       .  A
C1882      C2240   1.478       .  S
N1883      C1884   1.361       .  A
C1884      N1885   1.359       .  A
C1884      C2054   1.463       .  S
N1885      C1886   1.357       .  A
C1886      N1887   1.357       .  A
C1886      C1978   1.462       .  S
C1888      N1889   1.355       .  A
C1888      N1893   1.360       .  A
C1888      C2216   1.482       .  S
N1889      C1890   1.356       .  A
C1890      N1891   1.357       .  A
C1890      C2104   1.462       .  S
N1891      C1892   1.360       .  A
C1892      N1893   1.363       .  A
C1892      C2001   1.466       .  S
C1894      N1895   1.358       .  A
C1894      N1899   1.358       .  A
C1894      C2207   1.490       .  S
N1895      C1896   1.357       .  A
C1896      N1897   1.357       .  A
C1896      C2031   1.464       .  S
N1897      C1898   1.359       .  A
C1898      N1899   1.362       .  A
C1898      C2062   1.462       .  S
C1900      N1901   1.359       .  A
C1900      N1905   1.357       .  A
C1900      C2192   1.497       .  S
N1901      C1902   1.362       .  A
C1902      N1903   1.361       .  A
C1902      C2009   1.469       .  S
N1903      C1904   1.360       .  A
C1904      N1905   1.358       .  A
C1904      C1998   1.467       .  S
C1906      N1907   1.355       .  A
C1906      N1911   1.361       .  A
C1906      C2183   1.481       .  S
N1907      C1908   1.357       .  A
C1908      N1909   1.357       .  A
C1908      C2051   1.462       .  S
N1909      C1910   1.359       .  A
C1910      N1911   1.364       .  A
C1910      C1956   1.470       .  S
C1912      N1913   1.361       .  A
C1912      N1917   1.360       .  A
C1912      C2159   1.503       .  S
N1913      C1914   1.362       .  A
C1914      N1915   1.358       .  A
C1914      C2037   1.471       .  S
N1915      C1916   1.359       .  A
C1916      N1917   1.362       .  A
C1916      C2074   1.469       .  S
C1918      N1919   1.357       .  A
C1918      N1923   1.359       .  A
C1918      C2168   1.491       .  S
N1919      C1920   1.361       .  A
C1920      N1921   1.356       .  A
C1920      C2094   1.461       .  S
N1921      C1922   1.357       .  A
C1922      N1923   1.362       .  A
C1922      C2016   1.463       .  S
C1924      N1925   1.357       .  A
C1924      N1929   1.355       .  A
C1924      C2144   1.475       .  S
N1925      C1926   1.361       .  A
C1926      N1927   1.359       .  A
C1926      C2041   1.465       .  S
N1927      C1928   1.359       .  A
C1928      N1929   1.358       .  A
C1928      C1968   1.463       .  S
C1930      N1931   1.357       .  A
C1930      N1935   1.358       .  A
C1930      C2135   1.502       .  S
N1931      C1932   1.360       .  A
C1932      N1933   1.359       .  A
C1932      C2021   1.465       .  S
N1933      C1934   1.358       .  A
C1934      N1935   1.358       .  A
C1934      C1988   1.464       .  S
C1936      N1937   1.356       .  A
C1936      N1941   1.361       .  A
C1936      C2120   1.497       .  S
N1937      C1938   1.359       .  A
C1938      N1939   1.358       .  A
C1938      C2090   1.466       .  S
N1939      C1940   1.361       .  A
C1940      N1941   1.363       .  A
C1940      C1963   1.469       .  S
C1942      N1943   1.361       .  A
C1942      N1947   1.358       .  A
C1942      C2111   1.485       .  S
N1943      C1944   1.364       .  A
C1944      N1945   1.358       .  A
C1944      C1984   1.470       .  S
N1945      C1946   1.358       .  A
C1946      N1947   1.360       .  A
C1946      C2069   1.466       .  S
C1948      N1966   1.346       .  A
C1948      C1985   1.462       .  S
N1949      N1966   1.323       .  A
N1949      N1971   1.320       .  A
N1949     Co1986   2.074       .  S
C1950      N1975   1.335       .  A
C1950      C1988   1.450       .  S
C1950      H1995   1.082       .  S
H1951      C1992   1.081       .  S
C1952      N1976   1.345       .  A
C1952      C1956   1.464       .  S
C1952      H1981   1.081       .  S
Co1953     N1971   2.095       .  S
Co1953     N1993   2.093       .  S
Co1953    Cl1997   2.457       .  S
N1954      C1992   1.335       .  A
N1954      N1961   1.321       .  A
N1954     Co1955   2.071       .  S
Co1955     N1958   2.073       .  S
Co1955     N1975   2.067       .  S
Co1955     N1962   2.079       .  S
C1956      N1994   1.346       .  A
N1957      N1964   1.321       .  A
N1957      N1987   1.330       .  A
N1957     Co1990   2.103       .  S
N1958      N1976   1.321       .  A
N1958      N1994   1.324       .  A
N1959      C1988   1.353       .  A
N1959      N1969   1.329       .  A
H1960      C1985   1.081       .  S
N1961      N1982   1.328       .  A
N1962      N1980   1.321       .  A
N1962      N1967   1.324       .  A
C1963      N1967   1.347       .  A
C1963      C1991   1.462       .  S
N1964      C1979   1.336       .  A
N1964     Co1986   2.074       .  S
C1965      N1993   1.344       .  A
C1965      C1968   1.460       .  S
C1965      H1999   1.081       .  S
C1968      N1989   1.346       .  A
N1969      N1975   1.321       .  A
N1970      C1996   1.337       .  A
N1970      N1972   1.321       .  A
N1970     Co1986   2.069       .  S
N1971      C1985   1.344       .  A
N1972      N2000   1.329       .  A
N1972     Co1990   2.110       .  S
H1973      C1996   1.082       .  S
H1974      C1991   1.081       .  S
N1977      N1989   1.322       .  A
N1977      N1993   1.321       .  A
N1977     Co1986   2.077       .  S
C1978      N1982   1.352       .  A
C1978      C1992   1.450       .  S
C1979      C1998   1.452       .  S
C1979      H1983   1.081       .  S
N1980      C1991   1.345       .  A
C1984      N2000   1.355       .  A
C1984      C1996   1.450       .  S
Co1986    Cl1997   2.450       .  S
N1987      C1998   1.353       .  A
Co1990    Cl1997   2.458       .  S
C2001      N2019   1.346       .  A
C2001      C2038   1.462       .  S
N2002      N2024   1.321       .  A
N2002     Co2039   2.079   1_455  S
C2003      N2028   1.336       .  A
C2003      C2041   1.450       .  S
C2003      H2048   1.082       .  S
H2004      C2045   1.082       .  S
C2005      C2009   1.465       .  S
C2005      H2034   1.082       .  S
Co2006     N2014   2.099   1_655  S
Co2006     N2022   2.099       .  S
Co2006    Cl2050   2.456       .  S
N2007      N2014   1.320       .  A
N2007     Co2008   2.060   1_455  S
Co2008     N2011   2.068   1_655  S
Co2008     N2028   2.068       .  S
Co2008     N2015   2.062       .  S
Co2008    Cl2050   2.446       .  S
C2009      N2047   1.345       .  A
N2010      N2017   1.322       .  A
N2011      N2029   1.320       .  A
N2012      C2041   1.353       .  A
N2012      N2022   1.329       .  A
H2013      C2038   1.081       .  S
N2015      N2033   1.321       .  A
N2015      N2020   1.320       .  A
C2016      N2020   1.343       .  A
C2016      C2044   1.465       .  S
N2017     Co2039   2.070   1_455  S
C2018      N2046   1.344       .  A
C2018      C2021   1.461       .  S
C2018      H2052   1.082       .  S
C2021      N2042   1.346       .  A
N2022      N2028   1.320       .  A
N2023      C2049   1.337       .  A
N2023      N2025   1.321       .  A
N2023     Co2039   2.071       .  S
N2025      N2053   1.331       .  A
H2026      C2049   1.081       .  S
H2027      C2044   1.082       .  S
N2029     Co2043   2.105   1_455  S
N2030      N2042   1.322       .  A
N2030      N2046   1.320       .  A
N2030     Co2039   2.077       .  S
C2031      N2035   1.353       .  A
C2031      C2045   1.450       .  S
C2032      C2051   1.450       .  S
C2032      H2036   1.082       .  S
N2033      C2044   1.346       .  A
N2033     Co2043   2.103       .  S
C2037      N2053   1.356       .  A
C2037      C2049   1.450       .  S
N2040      C2051   1.352       .  A
Co2043    Cl2050   2.456       .  S
C2054      N2072   1.346       .  A
C2054      C2091   1.460       .  S
N2055      N2072   1.323       .  A
N2055      N2077   1.320       .  A
N2055     Co2092   2.074       .  S
C2056      N2081   1.333       .  A
C2056      C2094   1.445       .  S
C2056      H2101   1.081       .  S
H2057      C2098   1.082       .  S
C2058      N2082   1.345       .  A
C2058      C2062   1.463       .  S
C2058      H2087   1.082       .  S
Co2059     N2067   2.095       .  S
Co2059     N2474   2.093       .  S
Co2059     N2825   2.102       .  S
Co2059    Cl2103   2.457       .  S
N2060      C2098   1.335       .  A
N2060      N2067   1.321       .  A
N2060     Co2061   2.070       .  S
Co2061     N2064   2.062       .  S
Co2061     N2831   2.060       .  S
Co2061     N2818   2.069       .  S
Co2061    Cl2103   2.445       .  S
C2062      N2100   1.343       .  A
N2063      N2070   1.321       .  A
N2063      N2093   1.329       .  A
N2064      N2082   1.320       .  A
N2064      N2100   1.321       .  A
N2065      C2094   1.355       .  A
N2065      N2075   1.329       .  A
H2066      C2091   1.081       .  S
N2067      N2088   1.328       .  A
N2068      N2086   1.321       .  A
N2068      N2073   1.322       .  A
N2068     Co2811   2.073   1_545  S
C2069      N2073   1.345       .  A
C2069      C2097   1.464       .  S
N2070      C2085   1.334       .  A
N2070     Co2092   2.066       .  S
C2071      N2099   1.346       .  A
C2071      C2074   1.464       .  S
C2071      H2105   1.081       .  S
C2074      N2095   1.345       .  A
N2075      N2081   1.320       .  A
N2075     Co2809   2.104   1_545  S
N2076      C2102   1.332       .  A
N2076      N2078   1.321       .  A
N2076     Co2842   2.062   1_545  S
N2077      C2091   1.343       .  A
N2078      N2106   1.331       .  A
N2078     Co2471   2.109   1_546  S
H2079      C2102   1.081       .  S
H2080      C2097   1.081       .  S
N2081     Co2811   2.055   1_545  S
N2082     Co2096   2.098       .  S
N2083      N2095   1.323       .  A
N2083      N2099   1.320       .  A
N2083     Co2842   2.074   1_545  S
C2084      N2088   1.351       .  A
C2084      C2098   1.451       .  S
C2085      C2104   1.449       .  S
C2085      H2089   1.082       .  S
N2086      C2097   1.346       .  A
N2086     Co2846   2.100   1_545  S
C2090      N2106   1.356       .  A
C2090      C2102   1.446       .  S
Co2092     N2826   2.070       .  S
Co2092     N2833   2.074       .  S
N2093      C2104   1.353       .  A
Co2096     N2453   2.101       .  S
Co2096     N2836   2.102       .  S
Co2096    Cl2103   2.457       .  S
N2099     Co2434   2.102   1_546  S
C2107      H2117   1.084       .  S
C2107      C2108   1.402       .  A
C2107      C2112   1.403       .  A
C2108      C2113   1.490       .  S
C2108      C2109   1.413       .  A
C2109      C2110   1.406       .  A
C2109      S2114   1.800       .  S
C2110      H2115   1.084       .  S
C2110      C2111   1.405       .  A
C2111      C2112   1.416       .  A
C2112      S2116   1.804       .  S
C2113      C2118   1.409       .  A
C2113      C2122   1.402       .  A
S2114      H2130   1.405       .  S
S2116      H2127   1.406       .  S
C2118      C2119   1.406       .  A
C2118      S2123   1.806       .  S
C2119      H2124   1.082       .  S
C2119      C2120   1.407       .  A
C2120      C2121   1.423       .  A
C2121      C2122   1.406       .  A
C2121      S2125   1.804       .  S
C2122      H2126   1.084       .  S
S2123      H2128   1.406       .  S
S2125      H2129   1.407       .  S
C2131      H2141   1.084       .  S
C2131      C2132   1.400       .  A
C2131      C2136   1.401       .  A
C2132      C2137   1.486       .  S
C2132      C2133   1.412       .  A
C2133      C2134   1.401       .  A
C2133      S2138   1.807       .  S
C2134      H2139   1.083       .  S
C2134      C2135   1.412       .  A
C2135      C2136   1.423       .  A
C2136      S2140   1.801       .  S
C2137      C2142   1.412       .  A
C2137      C2146   1.403       .  A
S2138      H2154   1.404       .  S
S2140      H2151   1.408       .  S
C2142      C2143   1.404       .  A
C2142      S2147   1.806       .  S
C2143      H2148   1.084       .  S
C2143      C2144   1.403       .  A
C2144      C2145   1.412       .  A
C2145      C2146   1.401       .  A
C2145      S2149   1.804       .  S
C2146      H2150   1.083       .  S
S2147      H2152   1.407       .  S
S2149      H2153   1.406       .  S
C2155      H2165   1.083       .  S
C2155      C2156   1.402       .  A
C2155      C2160   1.407       .  A
C2156      C2161   1.494       .  S
C2156      C2157   1.414       .  A
C2157      C2158   1.404       .  A
C2157      S2162   1.805       .  S
C2158      H2163   1.084       .  S
C2158      C2159   1.410       .  A
C2159      C2160   1.422       .  A
C2160      S2164   1.806       .  S
C2161      C2166   1.413       .  A
C2161      C2170   1.405       .  A
S2162      H2178   1.404       .  S
S2164      H2175   1.408       .  S
C2166      C2167   1.406       .  A
C2166      S2171   1.807       .  S
C2167      H2172   1.082       .  S
C2167      C2168   1.405       .  A
C2168      C2169   1.418       .  A
C2169      C2170   1.405       .  A
C2169      S2173   1.803       .  S
C2170      H2174   1.084       .  S
S2171      H2176   1.407       .  S
S2173      H2177   1.407       .  S
C2179      H2189   1.084       .  S
C2179      C2180   1.402       .  A
C2179      C2184   1.401       .  A
C2180      C2185   1.486       .  S
C2180      C2181   1.414       .  A
C2181      C2182   1.403       .  A
C2181      S2186   1.803       .  S
C2182      H2187   1.084       .  S
C2182      C2183   1.403       .  A
C2183      C2184   1.416       .  A
C2184      S2188   1.804       .  S
C2185      C2190   1.408       .  A
C2185      C2194   1.402       .  A
S2186      H2202   1.405       .  S
S2188      H2199   1.406       .  S
C2190      C2191   1.403       .  A
C2190      S2195   1.807       .  S
C2191      H2196   1.081       .  S
C2191      C2192   1.410       .  A
C2192      C2193   1.420       .  A
C2193      C2194   1.404       .  A
C2193      S2197   1.803       .  S
C2194      H2198   1.083       .  S
S2195      H2200   1.407       .  S
S2197      H2201   1.408       .  S
C2203      H2213   1.084       .  S
C2203      C2204   1.404       .  A
C2203      C2208   1.406       .  A
C2204      C2209   1.483       .  S
C2204      C2205   1.410       .  A
C2205      C2206   1.397       .  A
C2205      S2210   1.805       .  S
C2206      H2211   1.084       .  S
C2206      C2207   1.407       .  A
C2207      C2208   1.420       .  A
C2208      S2212   1.803       .  S
C2209      C2214   1.411       .  A
C2209      C2218   1.399       .  A
S2210      H2226   1.404       .  S
S2212      H2223   1.407       .  S
C2214      C2215   1.408       .  A
C2214      S2219   1.805       .  S
C2215      H2220   1.083       .  S
C2215      C2216   1.405       .  A
C2216      C2217   1.416       .  A
C2217      C2218   1.398       .  A
C2217      S2221   1.804       .  S
C2218      H2222   1.084       .  S
S2219      H2224   1.407       .  S
S2221      H2225   1.407       .  S
C2227      H2237   1.083       .  S
C2227      C2228   1.398       .  A
C2227      C2232   1.403       .  A
C2228      C2233   1.484       .  S
C2228      C2229   1.414       .  A
C2229      C2230   1.402       .  A
C2229      S2234   1.808       .  S
C2230      H2235   1.084       .  S
C2230      C2231   1.409       .  A
C2231      C2232   1.425       .  A
C2232      S2236   1.811       .  S
C2233      C2238   1.410       .  A
C2233      C2242   1.404       .  A
S2234      H2250   1.401       .  S
S2236      H2247   1.407       .  S
C2238      C2239   1.403       .  A
C2238      S2243   1.806       .  S
C2239      H2244   1.083       .  S
C2239      C2240   1.405       .  A
C2240      C2241   1.413       .  A
C2241      C2242   1.401       .  A
C2241      S2245   1.803       .  S
C2242      H2246   1.084       .  S
S2243      H2248   1.407       .  S
S2245      H2249   1.406       .  S
C2251      N2252   1.360       .  A
C2251      N2256   1.357       .  A
C2251      C2606   1.498       .  S
N2252      C2253   1.361       .  A
C2253      N2254   1.360       .  A
C2253      C2323   1.468       .  S
N2254      C2255   1.359       .  A
C2255      N2256   1.358       .  A
C2255      C2459   1.468       .  S
C2257      N2258   1.361       .  A
C2257      N2262   1.353       .  A
C2257      C2615   1.482       .  S
N2258      C2259   1.364       .  A
C2259      N2260   1.360       .  A
C2259      C2429   1.468       .  S
N2260      C2261   1.357       .  A
C2261      N2262   1.354       .  A
C2261      C2353   1.459       .  S
C2263      N2264   1.354       .  A
C2263      N2268   1.360       .  A
C2263      C2591   1.483       .  S
N2264      C2265   1.355       .  A
C2265      N2266   1.356       .  A
C2265      C2479   1.457       .  S
N2266      C2267   1.358       .  A
C2267      N2268   1.363       .  A
C2267      C2376   1.465       .  S
C2269      N2270   1.356       .  A
C2269      N2274   1.358       .  A
C2269      C2582   1.484       .  S
N2270      C2271   1.357       .  A
C2271      N2272   1.359       .  A
C2271      C2406   1.465       .  S
N2272      C2273   1.360       .  A
C2273      N2274   1.361       .  A
C2273      C2437   1.466       .  S
C2275      N2276   1.360       .  A
C2275      N2280   1.357       .  A
C2275      C2567   1.496       .  S
N2276      C2277   1.363       .  A
C2277      N2278   1.357       .  A
C2277      C2384   1.464       .  S
N2278      C2279   1.357       .  A
C2279      N2280   1.357       .  A
C2279      C2373   1.460       .  S
C2281      N2282   1.357       .  A
C2281      N2286   1.360       .  A
C2281      C2558   1.481       .  S
N2282      C2283   1.359       .  A
C2283      N2284   1.361       .  A
C2283      C2426   1.471       .  S
N2284      C2285   1.361       .  A
C2285      N2286   1.364       .  A
C2285      C2331   1.476       .  S
C2287      N2288   1.361       .  A
C2287      N2292   1.356       .  A
C2287      C2534   1.499       .  S
N2288      C2289   1.363       .  A
C2289      N2290   1.357       .  A
C2289      C2412   1.467       .  S
N2290      C2291   1.356       .  A
C2291      N2292   1.358       .  A
C2291      C2449   1.460       .  S
C2293      N2294   1.355       .  A
C2293      N2298   1.357       .  A
C2293      C2543   1.486       .  S
N2294      C2295   1.358       .  A
C2295      N2296   1.360       .  A
C2295      C2469   1.462       .  S
N2296      C2297   1.360       .  A
C2297      N2298   1.360       .  A
C2297      C2391   1.466       .  S
C2299      N2300   1.357       .  A
C2299      N2304   1.359       .  A
C2299      C2519   1.481       .  S
N2300      C2301   1.361       .  A
C2301      N2302   1.359       .  A
C2301      C2416   1.468       .  S
N2302      C2303   1.359       .  A
C2303      N2304   1.362       .  A
C2303      C2343   1.469       .  S
C2305      N2306   1.355       .  A
C2305      N2310   1.360       .  A
C2305      C2510   1.501       .  S
N2306      C2307   1.358       .  A
C2307      N2308   1.358       .  A
C2307      C2396   1.458       .  S
N2308      C2309   1.357       .  A
C2309      N2310   1.359       .  A
C2309      C2363   1.464       .  S
C2311      N2312   1.359       .  A
C2311      N2316   1.360       .  A
C2311      C2495   1.496       .  S
N2312      C2313   1.360       .  A
C2313      N2314   1.358       .  A
C2313      C2465   1.466       .  S
N2314      C2315   1.358       .  A
C2315      N2316   1.362       .  A
C2315      C2338   1.466       .  S
C2317      N2318   1.358       .  A
C2317      N2322   1.357       .  A
C2317      C2486   1.484       .  S
N2318      C2319   1.360       .  A
C2319      N2320   1.360       .  A
C2319      C2359   1.468       .  S
N2320      C2321   1.360       .  A
C2321      N2322   1.360       .  A
C2321      C2444   1.466       .  S
C2323      N2341   1.346       .  A
C2323      C2360   1.463       .  S
N2324      N2341   1.323       .  A
N2324      N2346   1.320       .  A
N2324     Co2361   2.077       .  S
C2325      N2350   1.335       .  A
C2325      C2363   1.448       .  S
C2325      H2370   1.081       .  S
H2326      C2367   1.082       .  S
C2327      N2351   1.349       .  A
C2327      C2331   1.469       .  S
C2327      H2356   1.081       .  S
Co2328     N2346   2.098       .  S
Co2328     N2711   2.099   1_554  S
Co2328     N2368   2.103       .  S
Co2328     N2719   2.099   1_554  S
Co2328    Cl2372   2.456       .  S
N2329      C2367   1.333       .  A
N2329      N2336   1.321       .  A
N2329     Co2330   2.065       .  S
Co2330     N2333   2.073       .  S
Co2330     N2350   2.066       .  S
Co2330     N2337   2.070       .  S
Co2330    Cl2747   2.448       .  S
C2331      N2369   1.345       .  A
N2332      N2339   1.321       .  A
N2332      N2362   1.327       .  A
N2332     Co2365   2.094       .  S
N2333      N2351   1.320       .  A
N2333      N2369   1.323       .  A
N2334      C2363   1.354       .  A
N2334      N2344   1.329       .  A
H2335      C2360   1.081       .  S
N2336      N2357   1.328       .  A
N2336     Co2703   2.096       .  S
N2337      N2355   1.320       .  A
N2337      N2342   1.321       .  A
C2338      N2342   1.344       .  A
C2338      C2366   1.465       .  S
N2339      C2354   1.335       .  A
N2339     Co2361   2.068       .  S
C2340      N2368   1.346       .  A
C2340      C2343   1.464       .  S
C2340      H2374   1.081       .  S
C2343      N2364   1.346       .  A
N2344      N2350   1.321       .  A
N2344     Co2703   2.104       .  S
N2345      C2371   1.337       .  A
N2345      N2347   1.321       .  A
N2345     Co2361   2.075       .  S
N2346      C2360   1.346       .  A
N2347      N2375   1.329       .  A
N2347     Co2365   2.103       .  S
H2348      C2371   1.081       .  S
H2349      C2366   1.081       .  S
N2351     Co2740   2.111       .  S
N2352      N2364   1.323       .  A
N2352      N2368   1.320       .  A
N2352     Co2361   2.074       .  S
C2353      N2357   1.352       .  A
C2353      C2367   1.448       .  S
C2354      C2373   1.450       .  S
C2354      H2358   1.082       .  S
N2355      C2366   1.346       .  A
N2355     Co2740   2.099       .  S
C2359      N2375   1.353       .  A
C2359      C2371   1.452       .  S
Co2361    Cl2372   2.451       .  S
N2362      C2373   1.351       .  A
Co2365     N2726   2.100   1_554  S
Co2365     N2730   2.098   1_554  S
Co2365    Cl2372   2.455       .  S
Cl2372    Co2705   2.453   1_554  S
C2376      N2394   1.346       .  A
C2376      C2413   1.462       .  S
N2377      N2399   1.321       .  A
N2377     Co2414   2.072   1_455  S
C2378      N2403   1.336       .  A
C2378      C2416   1.449       .  S
C2378      H2423   1.082       .  S
H2379      C2420   1.082       .  S
C2380      C2384   1.465       .  S
C2380      H2409   1.082       .  S
Co2381     N2774   2.107   1_654  S
Co2381     N2389   2.091   1_655  S
Co2381     N2796   2.091   1_554  S
Co2381     N2397   2.110       .  S
Co2381    Cl2425   2.456       .  S
N2382      N2389   1.321       .  A
N2382     Co2383   2.075   1_455  S
Co2383     N2386   2.068   1_655  S
Co2383     N2403   2.066       .  S
Co2383     N2390   2.073       .  S
Co2383    Cl2425   2.449       .  S
C2384      N2422   1.343       .  A
N2385      N2392   1.320       .  A
N2385     Co2793   2.096   1_455  S
N2386      N2404   1.321       .  A
N2387      C2416   1.355       .  A
N2387      N2397   1.330       .  A
H2388      C2413   1.082       .  S
N2390      N2408   1.321       .  A
N2390      N2395   1.321       .  A
C2391      N2395   1.345       .  A
C2391      C2419   1.464       .  S
N2392     Co2414   2.070   1_455  S
C2393      N2421   1.343       .  A
C2393      C2396   1.458       .  S
C2393      H2427   1.082       .  S
C2396      N2417   1.345       .  A
N2397      N2403   1.320       .  A
N2398      C2424   1.336       .  A
N2398      N2400   1.321       .  A
N2398     Co2414   2.065       .  S
N2399     Co2756   2.103   1_455  S
N2400      N2428   1.330       .  A
N2400     Co2793   2.113       .  S
H2401      C2424   1.081       .  S
H2402      C2419   1.082       .  S
N2404     Co2418   2.108   1_455  S
N2405      N2417   1.321       .  A
N2405      N2421   1.320       .  A
N2405     Co2414   2.071       .  S
C2406      N2410   1.353       .  A
C2406      C2420   1.450       .  S
C2407      C2426   1.455       .  S
C2407      H2411   1.082       .  S
N2408      C2419   1.347       .  A
N2408     Co2418   2.100       .  S
C2412      N2428   1.356       .  A
C2412      C2424   1.448       .  S
Co2414    Cl2800   2.448       .  S
N2415      C2426   1.353       .  A
Co2418     N2760   2.099   1_654  S
Co2418     N2775   2.107   1_554  S
Co2418    Cl2425   2.457       .  S
N2421     Co2756   2.085       .  S
Cl2425    Co2789   2.451   1_554  S
C2429      N2447   1.347       .  A
C2429      C2466   1.462       .  S
N2430      N2447   1.324       .  A
N2430      N2452   1.320       .  A
N2430     Co2467   2.075       .  S
C2431      N2456   1.335       .  A
C2431      C2469   1.451       .  S
C2431      H2476   1.081       .  S
H2432      C2473   1.082       .  S
C2433      N2457   1.346       .  A
C2433      C2437   1.463       .  S
C2433      H2462   1.081       .  S
Co2434     N2827   2.097   1_554  S
Co2434     N2442   2.098       .  S
Co2434    Cl2478   2.455       .  S
N2435      C2473   1.338       .  A
N2435      N2442   1.321       .  A
N2435     Co2436   2.078       .  S
Co2436     N2439   2.074       .  S
Co2436    Cl2478   2.452       .  S
C2437      N2475   1.345       .  A
N2438      N2445   1.321       .  A
N2438      N2468   1.328       .  A
N2438     Co2846   2.098       .  S
N2439      N2457   1.321       .  A
N2439      N2475   1.322       .  A
N2440      C2469   1.352       .  A
N2440      N2450   1.328       .  A
H2441      C2466   1.081       .  S
N2442      N2463   1.328       .  A
N2443      N2461   1.321       .  A
N2443      N2448   1.323       .  A
C2444      N2448   1.346       .  A
C2444      C2472   1.462       .  S
N2445      C2460   1.333       .  A
N2445     Co2467   2.061       .  S
C2446      N2474   1.344       .  A
C2446      C2449   1.461       .  S
C2446      H2480   1.081       .  S
C2449      N2470   1.344       .  A
N2450      N2456   1.320       .  A
N2451      C2477   1.337       .  A
N2451      N2453   1.321       .  A
N2452      C2466   1.344       .  A
N2452     Co2809   2.099       .  S
N2453      N2481   1.329       .  A
H2454      C2477   1.081       .  S
H2455      C2472   1.081       .  S
N2457     Co2471   2.101       .  S
N2458      N2470   1.320       .  A
N2458      N2474   1.321       .  A
C2459      N2463   1.352       .  A
C2459      C2473   1.454       .  S
C2460      C2479   1.447       .  S
C2460      H2464   1.082       .  S
N2461      C2472   1.345       .  A
C2465      N2481   1.353       .  A
C2465      C2477   1.451       .  S
Co2467    Cl2853   2.448       .  S
N2468      C2479   1.352       .  A
Co2471     N2813   2.102   1_554  S
Co2471    Cl2478   2.458       .  S
Cl2478    Co2842   2.449   1_554  S
C2482      H2492   1.084       .  S
C2482      C2483   1.402       .  A
C2482      C2487   1.401       .  A
C2483      C2488   1.487       .  S
C2483      C2484   1.413       .  A
C2484      C2485   1.404       .  A
C2484      S2489   1.801       .  S
C2485      H2490   1.085       .  S
C2485      C2486   1.405       .  A
C2486      C2487   1.416       .  A
C2487      S2491   1.803       .  S
C2488      C2493   1.410       .  A
C2488      C2497   1.401       .  A
S2489      H2505   1.405       .  S
S2491      H2502   1.407       .  S
C2493      C2494   1.407       .  A
C2493      S2498   1.807       .  S
C2494      H2499   1.082       .  S
C2494      C2495   1.409       .  A
C2495      C2496   1.420       .  A
C2496      C2497   1.403       .  A
C2496      S2500   1.803       .  S
C2497      H2501   1.084       .  S
S2498      H2503   1.407       .  S
S2500      H2504   1.408       .  S
C2506      H2516   1.083       .  S
C2506      C2507   1.402       .  A
C2506      C2511   1.404       .  A
C2507      C2512   1.488       .  S
C2507      C2508   1.413       .  A
C2508      C2509   1.399       .  A
C2508      S2513   1.807       .  S
C2509      H2514   1.083       .  S
C2509      C2510   1.410       .  A
C2510      C2511   1.424       .  A
C2511      S2515   1.803       .  S
C2512      C2517   1.411       .  A
C2512      C2521   1.404       .  A
S2513      H2529   1.401       .  S
S2515      H2526   1.408       .  S
C2517      C2518   1.404       .  A
C2517      S2522   1.806       .  S
C2518      H2523   1.083       .  S
C2518      C2519   1.403       .  A
C2519      C2520   1.415       .  A
C2520      C2521   1.404       .  A
C2520      S2524   1.804       .  S
C2521      H2525   1.083       .  S
S2522      H2527   1.407       .  S
S2524      H2528   1.405       .  S
C2530      H2540   1.083       .  S
C2530      C2531   1.401       .  A
C2530      C2535   1.405       .  A
C2531      C2536   1.490       .  S
C2531      C2532   1.413       .  A
C2532      C2533   1.403       .  A
C2532      S2537   1.804       .  S
C2533      H2538   1.083       .  S
C2533      C2534   1.409       .  A
C2534      C2535   1.423       .  A
C2535      S2539   1.810       .  S
C2536      C2541   1.412       .  A
C2536      C2545   1.404       .  A
S2537      H2553   1.404       .  S
S2539      H2550   1.407       .  S
C2541      C2542   1.403       .  A
C2541      S2546   1.807       .  S
C2542      H2547   1.082       .  S
C2542      C2543   1.405       .  A
C2543      C2544   1.417       .  A
C2544      C2545   1.403       .  A
C2544      S2548   1.804       .  S
C2545      H2549   1.084       .  S
S2546      H2551   1.407       .  S
S2548      H2552   1.407       .  S
C2554      H2564   1.084       .  S
C2554      C2555   1.402       .  A
C2554      C2559   1.399       .  A
C2555      C2560   1.487       .  S
C2555      C2556   1.418       .  A
C2556      C2557   1.408       .  A
C2556      S2561   1.807       .  S
C2557      H2562   1.084       .  S
C2557      C2558   1.405       .  A
C2558      C2559   1.412       .  A
C2559      S2563   1.804       .  S
C2560      C2565   1.407       .  A
C2560      C2569   1.403       .  A
S2561      H2577   1.401       .  S
S2563      H2574   1.406       .  S
C2565      C2566   1.403       .  A
C2565      S2570   1.807       .  S
C2566      H2571   1.082       .  S
C2566      C2567   1.410       .  A
C2567      C2568   1.420       .  A
C2568      C2569   1.405       .  A
C2568      S2572   1.803       .  S
C2569      H2573   1.082       .  S
S2570      H2575   1.407       .  S
S2572      H2576   1.408       .  S
C2578      H2588   1.084       .  S
C2578      C2579   1.403       .  A
C2578      C2583   1.404       .  A
C2579      C2584   1.481       .  S
C2579      C2580   1.411       .  A
C2580      C2581   1.397       .  A
C2580      S2585   1.806       .  S
C2581      H2586   1.084       .  S
C2581      C2582   1.405       .  A
C2582      C2583   1.416       .  A
C2583      S2587   1.803       .  S
C2584      C2589   1.410       .  A
C2584      C2593   1.399       .  A
S2585      H2601   1.405       .  S
S2587      H2598   1.407       .  S
C2589      C2590   1.405       .  A
C2589      S2594   1.804       .  S
C2590      H2595   1.083       .  S
C2590      C2591   1.405       .  A
C2591      C2592   1.418       .  A
C2592      C2593   1.398       .  A
C2592      S2596   1.804       .  S
C2593      H2597   1.084       .  S
S2594      H2599   1.407       .  S
S2596      H2600   1.407       .  S
C2602      H2612   1.083       .  S
C2602      C2603   1.400       .  A
C2602      C2607   1.403       .  A
C2603      C2608   1.487       .  S
C2603      C2604   1.415       .  A
C2604      C2605   1.404       .  A
C2604      S2609   1.808       .  S
C2605      H2610   1.084       .  S
C2605      C2606   1.410       .  A
C2606      C2607   1.422       .  A
C2607      S2611   1.810       .  S
C2608      C2613   1.410       .  A
C2608      C2617   1.406       .  A
S2609      H2625   1.402       .  S
S2611      H2622   1.406       .  S
C2613      C2614   1.403       .  A
C2613      S2618   1.808       .  S
C2614      H2619   1.083       .  S
C2614      C2615   1.407       .  A
C2615      C2616   1.413       .  A
C2616      C2617   1.403       .  A
C2616      S2620   1.803       .  S
C2617      H2621   1.084       .  S
S2618      H2623   1.407       .  S
S2620      H2624   1.406       .  S
C2626      N2627   1.363       .  A
C2626      N2631   1.352       .  A
C2626      C2981   1.500       .  S
N2627      C2628   1.364       .  A
C2628      N2629   1.360       .  A
C2628      C2698   1.471       .  S
N2629      C2630   1.358       .  A
C2630      N2631   1.354       .  A
C2630      C2834   1.461       .  S
C2632      N2633   1.358       .  A
C2632      N2637   1.355       .  A
C2632      C2990   1.480       .  S
N2633      C2634   1.362       .  A
C2634      N2635   1.360       .  A
C2634      C2804   1.465       .  S
N2635      C2636   1.358       .  A
C2636      N2637   1.357       .  A
C2636      C2728   1.463       .  S
C2638      N2639   1.355       .  A
C2638      N2643   1.362       .  A
C2638      C2966   1.485       .  S
N2639      C2640   1.356       .  A
C2640      N2641   1.358       .  A
C2640      C2854   1.465       .  S
N2641      C2642   1.362       .  A
C2642      N2643   1.365       .  A
C2642      C2751   1.473       .  S
C2644      N2645   1.358       .  A
C2644      N2649   1.359       .  A
C2644      C2957   1.494       .  S
N2645      C2646   1.359       .  A
C2646      N2647   1.357       .  A
C2646      C2781   1.465       .  S
N2647      C2648   1.358       .  A
C2648      N2649   1.362       .  A
C2648      C2812   1.464       .  S
C2650      N2651   1.359       .  A
C2650      N2655   1.355       .  A
C2650      C2942   1.491       .  S
N2651      C2652   1.363       .  A
C2652      N2653   1.358       .  A
C2652      C2759   1.466       .  S
N2653      C2654   1.358       .  A
C2654      N2655   1.355       .  A
C2654      C2748   1.459       .  S
C2656      N2657   1.355       .  A
C2656      N2661   1.361       .  A
C2656      C2933   1.480       .  S
N2657      C2658   1.356       .  A
C2658      N2659   1.358       .  A
C2658      C2801   1.462       .  S
N2659      C2660   1.360       .  A
C2660      N2661   1.363       .  A
C2660      C2706   1.470       .  S
C2662      N2663   1.361       .  A
C2662      N2667   1.358       .  A
C2662      C2909   1.500       .  S
N2663      C2664   1.361       .  A
C2664      N2665   1.360       .  A
C2664      C2787   1.470       .  S
N2665      C2666   1.359       .  A
C2666      N2667   1.360       .  A
C2666      C2824   1.468       .  S
C2668      N2669   1.356       .  A
C2668      N2673   1.360       .  A
C2668      C2918   1.490       .  S
N2669      C2670   1.360       .  A
C2670      N2671   1.357       .  A
C2670      C2844   1.462       .  S
N2671      C2672   1.358       .  A
C2672      N2673   1.362       .  A
C2672      C2766   1.464       .  S
C2674      N2675   1.358       .  A
C2674      N2679   1.356       .  A
C2674      C2894   1.476       .  S
N2675      C2676   1.361       .  A
C2676      N2677   1.360       .  A
C2676      C2791   1.469       .  S
N2677      C2678   1.360       .  A
C2678      N2679   1.359       .  A
C2678      C2718   1.467       .  S
C2680      N2681   1.357       .  A
C2680      N2685   1.356       .  A
C2680      C2885   1.497       .  S
N2681      C2682   1.359       .  A
C2682      N2683   1.359       .  A
C2682      C2771   1.463       .  S
N2683      C2684   1.358       .  A
C2684      N2685   1.356       .  A
C2684      C2738   1.461       .  S
C2686      N2687   1.356       .  A
C2686      N2691   1.361       .  A
C2686      C2870   1.493       .  S
N2687      C2688   1.359       .  A
C2688      N2689   1.360       .  A
C2688      C2840   1.469       .  S
N2689      C2690   1.362       .  A
C2690      N2691   1.362       .  A
C2690      C2713   1.473       .  S
C2692      N2693   1.358       .  A
C2692      N2697   1.357       .  A
C2692      C2861   1.483       .  S
N2693      C2694   1.361       .  A
C2694      N2695   1.359       .  A
C2694      C2734   1.465       .  S
N2695      C2696   1.358       .  A
C2696      N2697   1.359       .  A
C2696      C2819   1.464       .  S
C2698      N2716   1.346       .  A
C2698      C2735   1.464       .  S
N2699      N2716   1.324       .  A
N2699      N2721   1.320       .  A
N2699     Co2736   2.075       .  S
C2700      N2725   1.333       .  A
C2700      C2738   1.449       .  S
C2700      H2745   1.082       .  S
H2701      C2742   1.082       .  S
C2702      N2726   1.344       .  A
C2702      C2706   1.462       .  S
C2702      H2731   1.081       .  S
Co2703     N2721   2.103       .  S
Co2703     N2743   2.097       .  S
Co2703    Cl2747   2.457       .  S
N2704      C2742   1.335       .  A
N2704      N2711   1.321       .  A
N2704     Co2705   2.072       .  S
Co2705     N2708   2.079       .  S
Co2705     N2725   2.067       .  S
Co2705     N2712   2.084       .  S
C2706      N2744   1.348       .  A
N2707      N2714   1.322       .  A
N2707      N2737   1.327       .  A
N2707     Co2740   2.092       .  S
N2708      N2726   1.320       .  A
N2708      N2744   1.325       .  A
N2709      C2738   1.352       .  A
N2709      N2719   1.328       .  A
H2710      C2735   1.081       .  S
N2711      N2732   1.329       .  A
N2712      N2730   1.320       .  A
N2712      N2717   1.324       .  A
C2713      N2717   1.348       .  A
C2713      C2741   1.463       .  S
N2714      C2729   1.335       .  A
N2714     Co2736   2.072       .  S
C2715      N2743   1.346       .  A
C2715      C2718   1.463       .  S
C2715      H2749   1.081       .  S
C2718      N2739   1.346       .  A
N2719      N2725   1.322       .  A
N2720      C2746   1.336       .  A
N2720      N2722   1.321       .  A
N2720     Co2736   2.068       .  S
N2721      C2735   1.346       .  A
N2722      N2750   1.328       .  A
N2722     Co2740   2.107       .  S
H2723      C2746   1.082       .  S
H2724      C2741   1.081       .  S
N2727      N2739   1.322       .  A
N2727      N2743   1.320       .  A
N2727     Co2736   2.078       .  S
C2728      N2732   1.352       .  A
C2728      C2742   1.451       .  S
C2729      C2748   1.451       .  S
C2729      H2733   1.082       .  S
N2730      C2741   1.346       .  A
C2734      N2750   1.354       .  A
C2734      C2746   1.449       .  S
Co2736    Cl2747   2.451       .  S
N2737      C2748   1.350       .  A
Co2740    Cl2747   2.456       .  S
C2751      N2769   1.348       .  A
C2751      C2788   1.463       .  S
N2752      N2774   1.321       .  A
N2752     Co2789   2.075   1_455  S
C2753      N2778   1.338       .  A
C2753      C2791   1.452       .  S
C2753      H2798   1.082       .  S
H2754      C2795   1.082       .  S
C2755      C2759   1.467       .  S
C2755      H2784   1.082       .  S
Co2756     N2764   2.091   1_655  S
Co2756     N2772   2.107       .  S
Co2756    Cl2800   2.456       .  S
N2757      N2764   1.320       .  A
N2757     Co2758   2.073   1_455  S
Co2758     N2761   2.063   1_655  S
Co2758     N2778   2.069       .  S
Co2758     N2765   2.070       .  S
Co2758    Cl2800   2.447       .  S
C2759      N2797   1.343       .  A
N2760      N2767   1.321       .  A
N2761      N2779   1.321       .  A
N2762      C2791   1.354       .  A
N2762      N2772   1.329       .  A
H2763      C2788   1.082       .  S
N2765      N2783   1.321       .  A
N2765      N2770   1.321       .  A
C2766      N2770   1.344       .  A
C2766      C2794   1.464       .  S
N2767     Co2789   2.069   1_455  S
C2768      N2796   1.344       .  A
C2768      C2771   1.460       .  S
C2768      H2802   1.082       .  S
C2771      N2792   1.346       .  A
N2772      N2778   1.320       .  A
N2773      C2799   1.338       .  A
N2773      N2775   1.321       .  A
N2773     Co2789   2.074       .  S
N2775      N2803   1.329       .  A
H2776      C2799   1.081       .  S
H2777      C2794   1.082       .  S
N2779     Co2793   2.104   1_455  S
N2780      N2792   1.322       .  A
N2780      N2796   1.321       .  A
N2780     Co2789   2.075       .  S
C2781      N2785   1.353       .  A
C2781      C2795   1.452       .  S
C2782      C2801   1.450       .  S
C2782      H2786   1.082       .  S
N2783      C2794   1.345       .  A
N2783     Co2793   2.099       .  S
C2787      N2803   1.354       .  A
C2787      C2799   1.453       .  S
N2790      C2801   1.352       .  A
Co2793    Cl2800   2.456       .  S
C2804      N2822   1.346       .  A
C2804      C2841   1.462       .  S
N2805      N2822   1.323       .  A
N2805      N2827   1.320       .  A
N2805     Co2842   2.072       .  S
C2806      N2831   1.334       .  A
C2806      C2844   1.447       .  S
C2806      H2851   1.082       .  S
H2807      C2848   1.082       .  S
C2808      N2832   1.346       .  A
C2808      C2812   1.465       .  S
C2808      H2837   1.082       .  S
Co2809     N2817   2.089       .  S
Co2809    Cl2853   2.455       .  S
N2810      C2848   1.335       .  A
N2810      N2817   1.321       .  A
N2810     Co2811   2.073       .  S
Co2811     N2814   2.061       .  S
Co2811    Cl2853   2.446       .  S
C2812      N2850   1.343       .  A
N2813      N2820   1.320       .  A
N2813      N2843   1.330       .  A
N2814      N2832   1.320       .  A
N2814      N2850   1.321       .  A
N2815      C2844   1.354       .  A
N2815      N2825   1.329       .  A
H2816      C2841   1.081       .  S
N2817      N2838   1.327       .  A
N2818      N2836   1.321       .  A
N2818      N2823   1.321       .  A
C2819      N2823   1.344       .  A
C2819      C2847   1.464       .  S
N2820      C2835   1.335       .  A
N2820     Co2842   2.068       .  S
C2821      N2849   1.347       .  A
C2821      C2824   1.465       .  S
C2821      H2855   1.081       .  S
C2824      N2845   1.345       .  A
N2825      N2831   1.320       .  A
N2826      C2852   1.335       .  A
N2826      N2828   1.321       .  A
N2827      C2841   1.344       .  A
N2828      N2856   1.331       .  A
H2829      C2852   1.081       .  S
H2830      C2847   1.081       .  S
N2832     Co2846   2.102       .  S
N2833      N2845   1.322       .  A
N2833      N2849   1.321       .  A
C2834      N2838   1.350       .  A
C2834      C2848   1.452       .  S
C2835      C2854   1.450       .  S
C2835      H2839   1.082       .  S
N2836      C2847   1.347       .  A
C2840      N2856   1.355       .  A
C2840      C2852   1.450       .  S
N2843      C2854   1.353       .  A
Co2846    Cl2853   2.455       .  S
C2857      H2867   1.084       .  S
C2857      C2858   1.401       .  A
C2857      C2862   1.401       .  A
C2858      C2863   1.486       .  S
C2858      C2859   1.412       .  A
C2859      C2860   1.404       .  A
C2859      S2864   1.798       .  S
C2860      H2865   1.084       .  S
C2860      C2861   1.405       .  A
C2861      C2862   1.416       .  A
C2862      S2866   1.803       .  S
C2863      C2868   1.409       .  A
C2863      C2872   1.401       .  A
S2864      H2880   1.405       .  S
S2866      H2877   1.407       .  S
C2868      C2869   1.405       .  A
C2868      S2873   1.807       .  S
C2869      H2874   1.082       .  S
C2869      C2870   1.407       .  A
C2870      C2871   1.421       .  A
C2871      C2872   1.404       .  A
C2871      S2875   1.804       .  S
C2872      H2876   1.084       .  S
S2873      H2878   1.407       .  S
S2875      H2879   1.407       .  S
C2881      H2891   1.083       .  S
C2881      C2882   1.402       .  A
C2881      C2886   1.401       .  A
C2882      C2887   1.486       .  S
C2882      C2883   1.414       .  A
C2883      C2884   1.399       .  A
C2883      S2888   1.809       .  S
C2884      H2889   1.083       .  S
C2884      C2885   1.410       .  A
C2885      C2886   1.420       .  A
C2886      S2890   1.802       .  S
C2887      C2892   1.412       .  A
C2887      C2896   1.404       .  A
S2888      H2904   1.401       .  S
S2890      H2901   1.408       .  S
C2892      C2893   1.404       .  A
C2892      S2897   1.808       .  S
C2893      H2898   1.083       .  S
C2893      C2894   1.404       .  A
C2894      C2895   1.412       .  A
C2895      C2896   1.401       .  A
C2895      S2899   1.804       .  S
C2896      H2900   1.082       .  S
S2897      H2902   1.406       .  S
S2899      H2903   1.406       .  S
C2905      H2915   1.083       .  S
C2905      C2906   1.402       .  A
C2905      C2910   1.408       .  A
C2906      C2911   1.492       .  S
C2906      C2907   1.411       .  A
C2907      C2908   1.402       .  A
C2907      S2912   1.802       .  S
C2908      H2913   1.084       .  S
C2908      C2909   1.409       .  A
C2909      C2910   1.423       .  A
C2910      S2914   1.809       .  S
C2911      C2916   1.413       .  A
C2911      C2920   1.404       .  A
S2912      H2928   1.404       .  S
S2914      H2925   1.407       .  S
C2916      C2917   1.405       .  A
C2916      S2921   1.807       .  S
C2917      H2922   1.082       .  S
C2917      C2918   1.405       .  A
C2918      C2919   1.418       .  A
C2919      C2920   1.405       .  A
C2919      S2923   1.804       .  S
C2920      H2924   1.084       .  S
S2921      H2926   1.407       .  S
S2923      H2927   1.407       .  S
C2929      H2939   1.084       .  S
C2929      C2930   1.400       .  A
C2929      C2934   1.399       .  A
C2930      C2935   1.482       .  S
C2930      C2931   1.414       .  A
C2931      C2932   1.403       .  A
C2931      S2936   1.802       .  S
C2932      H2937   1.084       .  S
C2932      C2933   1.403       .  A
C2933      C2934   1.415       .  A
C2934      S2938   1.803       .  S
C2935      C2940   1.407       .  A
C2935      C2944   1.402       .  A
S2936      H2952   1.404       .  S
S2938      H2949   1.407       .  S
C2940      C2941   1.401       .  A
C2940      S2945   1.807       .  S
C2941      H2946   1.082       .  S
C2941      C2942   1.409       .  A
C2942      C2943   1.418       .  A
C2943      C2944   1.403       .  A
C2943      S2947   1.803       .  S
C2944      H2948   1.083       .  S
S2945      H2950   1.407       .  S
S2947      H2951   1.407       .  S
C2953      H2963   1.084       .  S
C2953      C2954   1.404       .  A
C2953      C2958   1.407       .  A
C2954      C2959   1.487       .  S
C2954      C2955   1.411       .  A
C2955      C2956   1.399       .  A
C2955      S2960   1.805       .  S
C2956      H2961   1.083       .  S
C2956      C2957   1.407       .  A
C2957      C2958   1.419       .  A
C2958      S2962   1.803       .  S
C2959      C2964   1.412       .  A
C2959      C2968   1.400       .  A
S2960      H2976   1.405       .  S
S2962      H2973   1.407       .  S
C2964      C2965   1.409       .  A
C2964      S2969   1.803       .  S
C2965      H2970   1.083       .  S
C2965      C2966   1.405       .  A
C2966      C2967   1.417       .  A
C2967      C2968   1.400       .  A
C2967      S2971   1.804       .  S
C2968      H2972   1.084       .  S
S2969      H2974   1.407       .  S
S2971      H2975   1.407       .  S
C2977      H2987   1.083       .  S
C2977      C2978   1.400       .  A
C2977      C2982   1.404       .  A
C2978      C2983   1.488       .  S
C2978      C2979   1.416       .  A
C2979      C2980   1.401       .  A
C2979      S2984   1.808       .  S
C2980      H2985   1.084       .  S
C2980      C2981   1.408       .  A
C2981      C2982   1.427       .  A
C2982      S2986   1.812       .  S
C2983      C2988   1.411       .  A
C2983      C2992   1.406       .  A
S2984      H3000   1.401       .  S
S2986      H2997   1.406       .  S
C2988      C2989   1.403       .  A
C2988      S2993   1.808       .  S
C2989      H2994   1.083       .  S
C2989      C2990   1.404       .  A
C2990      C2991   1.414       .  A
C2991      C2992   1.403       .  A
C2991      S2995   1.803       .  S
C2992      H2996   1.084       .  S
S2993      H2998   1.406       .  S
S2995      H2999   1.406       .  S
