geometry optimzed in LAMMPS
_audit_creation_date              2020-12-01 
_audit_creation_method            'lammps2cif' 
_symmetry_space_group_name_H-M    'P1' 
_symmetry_Int_Tables_number       1 
_symmetry_cell_setting            triclinic 
loop_ 
_symmetry_equiv_pos_as_xyz 
  x,y,z 
_cell_length_a                    35.55559057 
_cell_length_b                    38.4125461286196 
_cell_length_c                    38.548922422794114 
_cell_angle_alpha                 89.56384074216297 
_cell_angle_beta                  90.54890528336666 
_cell_angle_gamma                 89.85099409716891 
loop_ 
_atom_site_label 
_atom_site_type_symbol 
_atom_site_fract_x 
_atom_site_fract_y 
_atom_site_fract_z 
_atom_site_charge 
C1          C  0.22895932  0.56090922  0.26017970     0.79700
N2          N  0.25643437  0.54451711  0.24225499    -0.78600
C3          C  0.28059984  0.56318396  0.22236971     0.82100
N4          N  0.27747182  0.59847039  0.22104915    -0.78600
C5          C  0.25005732  0.61515325  0.23873862     0.82200
N6          N  0.22573511  0.59616631  0.25806249    -0.80300
C7          C  0.30314471  0.87320051  0.26124552     0.79700
N8          N  0.30276178  0.83802343  0.25786432    -0.78600
C9          C  0.27486149  0.82196910  0.23988053     0.82100
N10         N  0.24720655  0.84150641  0.22469200    -0.78600
C11         C  0.24787450  0.87691697  0.22704453     0.82200
N12         N  0.27578977  0.89255022  0.24551737    -0.80300
Zr13       Zr  0.54699129  0.93441760  0.54255187     2.17500
O14         O  0.60771466  0.90836808  0.55763473    -0.51900
O15         O  0.51965669  0.89065884  0.58154334    -0.75100
O16         O  0.57415150  0.95827230  0.59554234    -0.81900
O17         O  0.55723722  0.89846558  0.45229847    -0.83600
O18         O  0.54453220  0.00897055  0.60819397    -0.79200
O19         O  0.58080023  0.89201448  0.50688218    -0.90900
O20         O  0.45625835  0.89134018  0.57384367    -0.76800
O21         O  0.49348346  0.96111133  0.56807208    -0.86300
O22         O  0.49352304  0.91277667  0.51178878    -0.86000
O23         O  0.55615120  0.99643638  0.53539598    -0.72800
O24         O  0.55467001  0.95391573  0.48369005    -0.84900
Zr25       Zr  0.45444462  0.02118175  0.47030440     2.26400
Zr26       Zr  0.50148480  0.02256501  0.56029777     2.06300
Zr27       Zr  0.50068469  0.93305166  0.45347674     2.10000
Zr28       Zr  0.44029149  0.94041288  0.53661239     1.78800
O29         O  0.52264540  0.92081682  0.39514306    -0.93700
O30         O  0.41048679  0.95093587  0.59227429    -0.41500
O31         O  0.44602539  0.95931098  0.47748519    -0.78100
O32         O  0.44704259  0.00202526  0.52967265    -0.96800
O33         O  0.50801531  0.04202304  0.50155969    -0.90100
O34         O  0.50805817  0.99439512  0.44489379    -0.93000
C35         C  0.48643893  0.87920982  0.58790895     1.00800
C36         C  0.58100587  0.88568238  0.47413512     1.13700
C37         C  0.56886410  0.98490731  0.61484573     1.04500
O38         O  0.46658205  0.02750762  0.61405847    -0.95100
O39         O  0.45606780  0.06996958  0.55603834    -0.90900
O40         O  0.42765691  0.06962483  0.50290600    -0.84000
C41         C  0.43200004  0.08179873  0.53373340     1.11100
O42         O  0.62872073  0.00927009  0.48678181    -0.97100
Zr43       Zr  0.56125537  0.01532446  0.47619043     1.88900
O44         O  0.48027107  0.06646357  0.43178411    -0.73800
O45         O  0.53895295  0.07458383  0.57043944    -0.53000
O46         O  0.58838035  0.06866321  0.49923839    -0.97700
O47         O  0.59574167  0.99877078  0.42442705    -0.54900
O48         O  0.54390000  0.06181256  0.43636783    -0.74300
C49         C  0.51388967  0.07629609  0.42435894     0.98100
O50         O  0.38859633  0.03746322  0.46153108    -0.63100
O51         O  0.46915155  0.87681647  0.45144098    -0.57900
O52         O  0.42709024  0.99752351  0.41677170    -0.94600
O53         O  0.45638867  0.94593674  0.40765360    -0.93000
O54         O  0.40517026  0.89385005  0.50870345    -0.93400
O55         O  0.37315382  0.95263679  0.53249094    -0.92100
C56         C  0.43219239  0.96939931  0.39947998     1.16900
H57         H  0.49230856  0.88770376  0.51317112     0.32900
H58         H  0.42460014  0.01224857  0.53918760     0.43700
H59         H  0.50962923  0.99988614  0.42045953     0.37200
H60         H  0.57864665  0.00394289  0.54733345     0.33700
H61         H  0.43045411  0.94654576  0.60986064     0.25500
H62         H  0.53142765  0.09098139  0.55166737     0.31400
H63         H  0.60075775  0.08004132  0.47925035     0.37400
H64         H  0.42157259  0.87306639  0.51079590     0.31800
H65         H  0.45062470  0.87901160  0.43221015     0.30700
H66         H  0.51577874  0.89621712  0.39098578     0.32400
H67         H  0.57697447  0.99952745  0.40530863     0.31300
H68         H  0.37037579  0.96730826  0.51138237     0.35300
H69         H  0.38737542  0.04952208  0.43875104     0.28100
H70         H  0.60515800  0.89928118  0.58160360     0.32300
H71         H  0.64088898  0.02643375  0.47125083     0.35200
H72         H  0.48839793  0.86049129  0.44270594     0.27800
H73         H  0.37482072  0.01534753  0.45815260     0.40600
H74         H  0.47628891  0.04895908  0.62501821     0.30700
H75         H  0.40641492  0.97642670  0.59296386     0.38300
H76         H  0.60132546  0.97367923  0.42771724     0.30200
H77         H  0.52838738  0.08482911  0.59174105     0.30200
H78         H  0.62557509  0.92802824  0.55945179     0.30500
C79         C  0.72368304  0.37883720  0.75611943     0.79700
N80         N  0.75567125  0.39224091  0.74185478    -0.78600
C81         C  0.78100079  0.37071063  0.72634399     0.82100
N82         N  0.77425600  0.33592222  0.72586742    -0.78600
C83         C  0.74268741  0.32232548  0.73985567     0.82200
N84         N  0.71741907  0.34393575  0.75476665    -0.80300
C85         C  0.77103763  0.06177566  0.77895482     0.79700
N86         N  0.73954722  0.04550471  0.76661602    -0.78600
C87         C  0.71276605  0.06427652  0.74897488     0.82100
N88         N  0.71765723  0.09904046  0.74404241    -0.78600
C89         C  0.74901338  0.11521494  0.75576773     0.82200
N90         N  0.77550568  0.09643035  0.77307393    -0.80300
C91         C  0.56767248  0.20644633  0.27228900     0.79700
N92         N  0.60575764  0.20478428  0.27544617    -0.78600
C93         C  0.62825330  0.22189489  0.25301914     0.82100
N94         N  0.61246459  0.24078477  0.22701177    -0.78600
C95         C  0.57452284  0.24256212  0.22267183     0.82200
N96         N  0.55175357  0.22515817  0.24543412    -0.80300
C97         C  0.90996745  0.25781104  0.27375111     0.79700
N98         N  0.92908616  0.23008374  0.26006556    -0.78600
C99         C  0.90929322  0.20355019  0.24468582     0.82100
N100        N  0.87101313  0.20512386  0.24350819    -0.78600
C101        C  0.85224585  0.23269679  0.25646581     0.82200
N102        N  0.87186798  0.25877329  0.27125817    -0.80300
Zr103      Zr  0.96653912  0.51869700  0.54476929     2.17500
O104        O  0.91036560  0.54765847  0.56650247    -0.51900
O105        O  0.99576120  0.55493268  0.58996895    -0.75100
O106        O  0.93512596  0.48633394  0.59114628    -0.81900
O107        O  0.96846670  0.57590963  0.46378194    -0.83600
O108        O  0.96072035  0.43240023  0.59680423    -0.79200
O109        O  0.93521718  0.56670457  0.51293000    -0.90900
O110        O  0.05800816  0.54203406  0.59091611    -0.76800
O111        O  0.01666300  0.48367672  0.56751581    -0.86300
O112        O  0.02320337  0.54108453  0.52049938    -0.86000
O113        O  0.95292177  0.45975985  0.52663207    -0.72800
O114        O  0.95987113  0.51140949  0.48306556    -0.84900
Zr115      Zr  0.05441437  0.44026783  0.46253215     2.26400
Zr116      Zr  0.00437682  0.42537777  0.54892670     2.06300
Zr117      Zr  0.01710490  0.53284573  0.45930722     2.10000
Zr118      Zr  0.07286270  0.50526282  0.54235430     1.78800
O119        O  0.99466468  0.55627364  0.40393394    -0.93700
O120        O  0.10313643  0.47710684  0.59216305    -0.41500
O121        O  0.06840178  0.49863694  0.48065589    -0.78100
O122        O  0.06178180  0.44675471  0.52445709    -0.96800
O123        O  0.99810825  0.41817993  0.48754823    -0.90100
O124        O  0.00434334  0.47504668  0.43993124    -0.93000
C125        C  0.02906096  0.55754817  0.60304762     1.00800
C126        C  0.94154043  0.58316029  0.48430678     1.13700
C127        C  0.93761614  0.45633943  0.60604796     1.04500
O128        O  0.03712208  0.40897077  0.60236713    -0.95100
O129        O  0.04515461  0.37566017  0.53771823    -0.90900
O130        O  0.07584680  0.38541321  0.48711112    -0.84000
C131        C  0.06906948  0.36720790  0.51435502     1.11100
O132        O  0.88205118  0.46732467  0.47214848    -0.97100
Zr133      Zr  0.94833791  0.45297054  0.46475974     1.88900
O134        O  0.02608638  0.39974635  0.42121000    -0.73800
O135        O  0.96326282  0.37475561  0.54845397    -0.53000
O136        O  0.91005777  0.40193769  0.47721120    -0.97700
O137        O  0.92221421  0.47992293  0.41227632    -0.54900
O138        O  0.96310684  0.40979858  0.42081540    -0.74300
C139        C  0.99252190  0.39377584  0.41008957     0.98100
O140        O  0.11901734  0.42638284  0.44669618    -0.63100
O141        O  0.05738202  0.58361995  0.46609513    -0.57900
O142        O  0.08193982  0.46873152  0.41159342    -0.94600
O143        O  0.05852158  0.52376377  0.41127516    -0.93000
O144        O  0.10815555  0.55802278  0.52961199    -0.93400
O145        O  0.13990858  0.49404894  0.53606594    -0.92100
C146        C  0.07885901  0.49956495  0.39852823     1.16900
H147        H  0.02677587  0.56530958  0.52614287     0.32900
H148        H  0.08295023  0.43323549  0.53286340     0.43700
H149        H  0.00320116  0.47397037  0.41491275     0.37200
H150        H  0.92941154  0.45183708  0.53611844     0.33700
H151        H  0.11502094  0.49628546  0.60529231     0.25500
H152        H  0.96266195  0.36659745  0.57286906     0.31400
H153        H  0.89838650  0.39564491  0.45469436     0.37400
H154        H  0.12272466  0.56271271  0.55108833     0.31800
H155        H  0.07998024  0.57839878  0.45224029     0.30700
H156        H  0.00698405  0.57925179  0.40157781     0.32400
H157        H  0.92760439  0.46341989  0.39335369     0.31300
H158        H  0.14130824  0.47504567  0.51891018     0.35300
H159        H  0.13265956  0.42215845  0.46885616     0.28100
H160        H  0.91443107  0.55027120  0.59180434     0.32300
H161        H  0.86865119  0.45654032  0.45233992     0.35200
H162        H  0.04434524  0.60243623  0.45300245     0.27800
H163        H  0.11784781  0.40338880  0.43528638     0.40600
H164        H  0.02672084  0.38589621  0.60861274     0.30700
H165        H  0.08211765  0.46934859  0.60696887     0.38300
H166        H  0.93859317  0.50017583  0.40753680     0.30200
H167        H  0.93778382  0.38432255  0.54397048     0.30200
H168        H  0.88965466  0.53061449  0.56418037     0.30500
C169        C  0.40903637  0.70110645  0.76755401     0.79700
N170        N  0.42669927  0.71925103  0.74176449    -0.78600
C171        C  0.40591487  0.73394034  0.71538841     0.82100
N172        N  0.36779868  0.73062812  0.71539170    -0.78600
C173        C  0.35017094  0.71262623  0.74078290     0.82200
N174        N  0.37088474  0.69797141  0.76673798    -0.80300
C175        C  0.07000367  0.75603922  0.77609792     0.79700
N176        N  0.05055337  0.73039737  0.75929189    -0.78600
C177        C  0.06934610  0.70712699  0.73909424     0.82100
N178        N  0.10734030  0.70955168  0.73619437    -0.78600
C179        C  0.12687177  0.73501929  0.75234894     0.82200
N180        N  0.10800259  0.75826374  0.77207777    -0.80300
Zr181      Zr  0.96120851  0.94625022  0.97042436     2.17500
O182        O  0.90569063  0.91744882  0.94656163    -0.51900
O183        O  0.98937319  0.90649172  0.92740955    -0.75100
O184        O  0.93194817  0.98005303  0.92351304    -0.81900
O185        O  0.95070900  0.89902063  0.05708168    -0.83600
O186        O  0.96474229  0.03018560  0.91619933    -0.79200
O187        O  0.92229303  0.90538398  0.00444641    -0.90900
O188        O  0.05170310  0.91852829  0.92685411    -0.76800
O189        O  0.01495422  0.97628852  0.94883334    -0.86300
O190        O  0.01470149  0.92040547  0.99819211    -0.86000
O191        O  0.95266001  0.00694247  0.98596379    -0.72800
O192        O  0.95416692  0.95760637  0.03114707    -0.84900
Zr193      Zr  0.05369000  0.02150951  0.05475640     2.26400
Zr194      Zr  0.00779176  0.03602059  0.96520584     2.06300
Zr195      Zr  0.00773838  0.93221759  0.05858537     2.10000
Zr196      Zr  0.06804277  0.95141824  0.97767161     1.78800
O197        O  0.98478963  0.91015645  0.11380893    -0.93700
O198        O  0.10374935  0.97979268  0.93181862    -0.41500
O199        O  0.06274770  0.96152149  0.03883839    -0.78100
O200        O  0.06209281  0.01112673  0.99348267    -0.96800
O201        O  0.00051887  0.04695789  0.02587749    -0.90100
O202        O  0.99998465  0.99157121  0.07595266    -0.93000
C203        C  0.02254480  0.90335661  0.91454513     1.00800
C204        C  0.92382158  0.89309305  0.03566769     1.13700
C205        C  0.93858628  0.00881578  0.90751790     1.04500
O206        O  0.04119133  0.04978468  0.91196970    -0.95100
O207        O  0.05428816  0.08127617  0.97480759    -0.90900
O208        O  0.08309083  0.07169501  0.02692464    -0.84000
C209        C  0.07884352  0.08871306  0.99828627     1.11100
O210        O  0.87976719  0.01057192  0.03615763    -0.97100
Zr211      Zr  0.94702565  0.01708984  0.04714145     1.88900
O212        O  0.02534764  0.06145062  0.09737968    -0.73800
O213        O  0.97145910  0.08982187  0.96230509    -0.53000
O214        O  0.92037755  0.07356015  0.03108709    -0.97700
O215        O  0.91257332  0.99233045  0.09576003    -0.54900
O216        O  0.96178401  0.05623925  0.09445093    -0.74300
C217        C  0.99189014  0.06934412  0.10745627     0.98100
O218        O  0.11399959  0.04495443  0.07417372    -0.63100
O219        O  0.04043353  0.87686777  0.05210599    -0.57900
O220        O  0.08510492  0.98534303  0.09992970    -0.94600
O221        O  0.05048774  0.93637161  0.10656144    -0.93000
O222        O  0.09273365  0.89338585  0.99025517    -0.93400
O223        O  0.13605074  0.94987301  0.98604241    -0.92100
C224        C  0.07805139  0.95594231  0.11488023     1.16900
H225        H  0.01605459  0.89581457  0.99332672     0.32900
H226        H  0.08486688  0.02202395  0.98544185     0.43700
H227        H  0.99817183  0.99318430  0.10085931     0.37200
H228        H  0.93025753  0.01664739  0.97538849     0.33700
H229        H  0.11136785  0.96077659  0.91615866     0.25500
H230        H  0.98162078  0.10432013  0.98132348     0.31400
H231        H  0.91241562  0.07119523  0.00654356     0.37400
H232        H  0.10518426  0.88608881  0.96860930     0.31800
H233        H  0.06258938  0.87841651  0.06776604     0.30700
H234        H  0.96693109  0.92816716  0.12177121     0.32400
H235        H  0.92882051  0.99619300  0.11636130     0.31300
H236        H  0.13983213  0.94444465  0.01098560     0.35300
H237        H  0.11205348  0.04754835  0.09963088     0.28100
H238        H  0.91034205  0.91514641  0.92139603     0.32300
H239        H  0.86752596  0.02950549  0.04922770     0.35200
H240        H  0.02382050  0.85958737  0.06335007     0.27800
H241        H  0.13264452  0.02611811  0.07075403     0.40600
H242        H  0.03142844  0.07288491  0.90462762     0.30700
H243        H  0.08477777  0.99316513  0.91826518     0.38300
H244        H  0.91353894  0.96685574  0.09209458     0.30200
H245        H  0.97994817  0.10159022  0.94083382     0.30200
H246        H  0.88496058  0.93461671  0.94821887     0.30500
C247        C  0.25252840  0.18805157  0.59329612     0.79700
N248        N  0.22313131  0.20389728  0.57644683    -0.78600
C249        C  0.19271817  0.21497084  0.59464670     0.82100
N250        N  0.19202653  0.21007101  0.62945354    -0.78600
C251        C  0.22107971  0.19474131  0.64653269     0.82200
N252        N  0.25141319  0.18398433  0.62837992    -0.80300
C253        C  0.28162696  0.23679511  0.89904394     0.79700
N254        N  0.28210828  0.22873137  0.86483498    -0.78600
C255        C  0.25273182  0.21253178  0.84956813     0.82100
N256        N  0.22243752  0.20425437  0.86877631    -0.78600
C257        C  0.22139863  0.21152081  0.90314109     0.82200
N258        N  0.25112939  0.22795008  0.91849588    -0.80300
Zr259      Zr  0.55503402  0.51028730  0.94992850     2.17500
O260        O  0.61556741  0.52975893  0.92768671    -0.51900
O261        O  0.53013741  0.55626724  0.91090173    -0.75100
O262        O  0.57600351  0.47788119  0.89870274    -0.81900
O263        O  0.57605373  0.55091335  0.03872061    -0.83600
O264        O  0.53719535  0.43178928  0.89033019    -0.79200
O265        O  0.59793614  0.54827591  0.98353346    -0.90900
O266        O  0.46833057  0.56453633  0.92268555    -0.76800
O267        O  0.49546026  0.49068547  0.92858193    -0.86300
O268        O  0.50818437  0.53955259  0.98286331    -0.86000
O269        O  0.55474182  0.44803328  0.96026281    -0.72800
O270        O  0.56489109  0.49162774  0.00908331    -0.84900
Zr271      Zr  0.45663674  0.44053911  0.03107723     2.26400
Zr272      Zr  0.49449416  0.42908050  0.93916281     2.06300
Zr273      Zr  0.51754242  0.52056663  0.04157149     2.10000
Zr274      Zr  0.44884905  0.51926715  0.96226629     1.78800
O275        O  0.54759553  0.51707792  0.09854006    -0.93700
O276        O  0.41029553  0.51053372  0.91043803    -0.41500
O277        O  0.45717165  0.50221888  0.02147668    -0.78100
O278        O  0.44632822  0.45769418  0.97146935    -0.96800
O279        O  0.50305382  0.41077672  0.99828782    -0.90100
O280        O  0.51590710  0.45938704  0.05274223    -0.93000
C281        C  0.49841674  0.57203801  0.90625518     1.00800
C282        C  0.60034472  0.55794876  0.01548103     1.13700
C283        C  0.56533061  0.45082420  0.88173024     1.04500
O284        O  0.45307764  0.42972708  0.88843738    -0.95100
O285        O  0.44471963  0.38697503  0.94855887    -0.90900
O286        O  0.42150914  0.39456784  0.00272931    -0.84000
C287        C  0.42195593  0.37941805  0.97317794     1.11100
O288        O  0.62947691  0.42420365  0.01005893    -0.97100
Zr289      Zr  0.56204991  0.43006731  0.01962400     1.88900
O290        O  0.47881492  0.39703958  0.07312395    -0.73800
O291        O  0.52028009  0.37166314  0.92707882    -0.53000
O292        O  0.57834510  0.37522176  0.99209566    -0.97700
O293        O  0.60229970  0.44246000  0.06957908    -0.54900
O294        O  0.54061167  0.38763273  0.06233221    -0.74300
C295        C  0.51008304  0.38102898  0.07871002     0.98100
O296        O  0.39272133  0.42489235  0.04745045    -0.63100
O297        O  0.50174910  0.58197886  0.04769460    -0.57900
O298        O  0.43347161  0.47486908  0.07977024    -0.94600
O299        O  0.47053871  0.52246941  0.08571941    -0.93000
O300        O  0.42433857  0.57037515  0.99160374    -0.93400
O301        O  0.38099917  0.51862950  0.97047647    -0.92100
C302        C  0.44247487  0.50368349  0.09445592     1.16900
H303        H  0.51051392  0.56454374  0.98087440     0.32900
H304        H  0.42179003  0.45009786  0.96374420     0.43700
H305        H  0.51863938  0.45476273  0.07728654     0.37200
H306        H  0.57486836  0.43667730  0.94810838     0.33700
H307        H  0.42809863  0.51196797  0.89089563     0.25500
H308        H  0.51564907  0.35777788  0.94835251     0.31400
H309        H  0.58221116  0.35849808  0.01147580     0.37400
H310        H  0.44058760  0.58982882  0.98403499     0.31800
H311        H  0.47397784  0.58261341  0.04923967     0.30700
H312        H  0.54571809  0.54091275  0.10796759     0.32400
H313        H  0.58578351  0.44018502  0.08999220     0.31300
H314        H  0.37766578  0.50961393  0.99438424     0.35300
H315        H  0.39390071  0.41926340  0.07255001     0.28100
H316        H  0.61114349  0.53583955  0.90296717     0.32300
H317        H  0.63748760  0.40353501  0.02379656     0.35200
H318        H  0.51070818  0.58814872  0.07124582     0.27800
H319        H  0.37791159  0.44671290  0.04567281     0.40600
H320        H  0.46754321  0.44141091  0.86990331     0.30700
H321        H  0.40285093  0.48572543  0.91130611     0.38300
H322        H  0.60755782  0.46771358  0.06781498     0.30200
H323        H  0.50302935  0.36170521  0.90946741     0.30200
H324        H  0.63187031  0.50881349  0.92742367     0.30500
C325        C  0.77592671  0.70116683  0.40736071     0.79700
N326        N  0.75176858  0.72183508  0.42503584    -0.78600
C327        C  0.73054448  0.74604507  0.40796302     0.82100
N328        N  0.73351139  0.74914800  0.37292517    -0.78600
C329        C  0.75694722  0.72828016  0.35479566     0.82200
N330        N  0.77842992  0.70441053  0.37219154    -0.80300
C331        C  0.73798265  0.70060845  0.09206463     0.79700
N332        N  0.75538117  0.72803091  0.07685231    -0.78600
C333        C  0.77429660  0.75180947  0.09608319     0.82100
N334        N  0.77527484  0.74822355  0.13129129    -0.78600
C335        C  0.75811614  0.72076249  0.14703879     0.82200
N336        N  0.73978499  0.69687535  0.12720848    -0.80300
C337        C  0.75936218  0.73247967  0.31657039    -0.05800
C338        C  0.75703896  0.76589312  0.30154755    -0.05700
C339        C  0.75801931  0.77039102  0.26550582    -0.23900
C340        C  0.76020748  0.74145078  0.24363415     0.18300
C341        C  0.76192880  0.70764281  0.25840499     0.15600
C342        C  0.76227966  0.70339992  0.29478312    -0.18900
C343        C  0.76246195  0.67865403  0.23649127    -0.20700
C344        C  0.76092175  0.68304778  0.20040565    -0.13300
C345        C  0.75984020  0.71650924  0.18539250     0.03400
C346        C  0.75993848  0.74569322  0.20727623    -0.25400
H347        H  0.75471225  0.78866243  0.31780592     0.08500
H348        H  0.75643112  0.79649445  0.25472881     0.12100
H349        H  0.76347558  0.67749392  0.30610252     0.12000
H350        H  0.76355834  0.65253292  0.24726399     0.11800
H351        H  0.76102415  0.66018409  0.18413683     0.12300
H352        H  0.75869775  0.77162946  0.19602338     0.14200
C353        C  0.63352647  0.57714062  0.02830376    -0.05800
C354        C  0.64940306  0.56643688  0.06019850    -0.05700
C355        C  0.67505021  0.58737126  0.07776299    -0.23900
C356        C  0.68511192  0.61973101  0.06395806     0.18300
C357        C  0.67113059  0.63004876  0.03090105     0.15600
C358        C  0.64550132  0.60847210  0.01300049    -0.18900
C359        C  0.68168344  0.66248280  0.01725659    -0.20700
C360        C  0.70436786  0.68494365  0.03675061    -0.13300
C361        C  0.71672563  0.67554273  0.07037731     0.03400
C362        C  0.70767691  0.64244903  0.08340880    -0.25400
H363        H  0.64056900  0.54230869  0.07234905     0.08500
H364        H  0.68577242  0.57887106  0.10284756     0.12100
H365        H  0.63307700  0.61706294  0.98860334     0.12000
H366        H  0.67161283  0.67087001  0.99191969     0.11800
H367        H  0.71120543  0.71020181  0.02589036     0.12300
H368        H  0.71751357  0.63461373  0.10901799     0.14200
C369        C  0.31341382  0.25717309  0.91323073    -0.05800
C370        C  0.34727552  0.25828627  0.89461779    -0.05700
C371        C  0.37571378  0.28138224  0.90365319    -0.23900
C372        C  0.37098343  0.30389122  0.93156395     0.18300
C373        C  0.33789483  0.30207139  0.95159472     0.15600
C374        C  0.30930376  0.27847943  0.94245730    -0.18900
C375        C  0.33356339  0.32471626  0.97963597    -0.20700
C376        C  0.36129592  0.34936983  0.98717842    -0.13300
C377        C  0.39375795  0.35192756  0.96670820     0.03400
C378        C  0.39853198  0.32872131  0.93916261    -0.25400
H379        H  0.35144227  0.24191768  0.87221775     0.08500
H380        H  0.40102044  0.28223967  0.88822070     0.12100
H381        H  0.28332423  0.27798033  0.95693571     0.12000
H382        H  0.30848547  0.32376811  0.99535815     0.11800
H383        H  0.35687001  0.36699881  0.00854981     0.12300
H384        H  0.42353392  0.33019141  0.92332591     0.14200
C385        C  0.22059143  0.19286799  0.68477052    -0.05800
C386        C  0.18630101  0.19579225  0.70243176    -0.05700
C387        C  0.18572663  0.19816677  0.73849265    -0.23900
C388        C  0.21948292  0.19827917  0.75747055     0.18300
C389        C  0.25410547  0.19481840  0.74004550     0.15600
C390        C  0.25439766  0.19146339  0.70386362    -0.18900
C391        C  0.28791093  0.19613410  0.75896735    -0.20700
C392        C  0.28744942  0.20167431  0.79470177    -0.13300
C393        C  0.25316979  0.20520258  0.81215705     0.03400
C394        C  0.21922464  0.20289408  0.79344970    -0.25400
H395        H  0.15985272  0.19685375  0.68827942     0.08500
H396        H  0.15896167  0.20088368  0.75143146     0.12100
H397        H  0.28100747  0.18960064  0.69049592     0.12000
H398        H  0.31469783  0.19364623  0.74603608     0.11800
H399        H  0.31393603  0.20322005  0.80871353     0.12300
H400        H  0.19264727  0.20597970  0.80666781     0.14200
C401        C  0.89235760  0.87242568  0.04980637    -0.05800
C402        C  0.88514484  0.87456049  0.08559563    -0.05700
C403        C  0.85860286  0.85320324  0.10121436    -0.23900
C404        C  0.83878007  0.82894343  0.08145975     0.18300
C405        C  0.84441128  0.82744505  0.04517508     0.15600
C406        C  0.87096736  0.84954578  0.02938372    -0.18900
C407        C  0.82434674  0.80297589  0.02566541    -0.20700
C408        C  0.80039089  0.77932479  0.04210186    -0.13300
C409        C  0.79596005  0.77965318  0.07840440     0.03400
C410        C  0.81451327  0.80532424  0.09773834    -0.25400
H411        H  0.90064016  0.89253925  0.10182434     0.08500
H412        H  0.85438193  0.85500494  0.12895084     0.12100
H413        H  0.87619447  0.84779708  0.00179285     0.12000
H414        H  0.82797756  0.80145305  0.99784318     0.11800
H415        H  0.78627690  0.76001802  0.02637818     0.12300
H416        H  0.81116391  0.80621601  0.12564396     0.14200
C417        C  0.10544066  0.11742555  0.99058751    -0.05800
C418        C  0.13811935  0.12226755  0.01089775    -0.05700
C419        C  0.16612667  0.14548088  0.00022652    -0.23900
C420        C  0.16199487  0.16418567  0.96901731     0.18300
C421        C  0.12814137  0.16111281  0.94970748     0.15600
C422        C  0.10015889  0.13804444  0.96066043    -0.18900
C423        C  0.12358829  0.17962138  0.91858153    -0.20700
C424        C  0.15337847  0.19869545  0.90517530    -0.13300
C425        C  0.18821017  0.19982437  0.92267220     0.03400
C426        C  0.19186238  0.18401868  0.95555041    -0.25400
H427        H  0.14288197  0.10696938  0.03424046     0.08500
H428        H  0.19165664  0.14767452  0.01561641     0.12100
H429        H  0.07502480  0.13496458  0.94483684     0.12000
H430        H  0.09767369  0.17787740  0.90367182     0.11800
H431        H  0.14986030  0.21104189  0.87997999     0.12300
H432        H  0.21870265  0.18462623  0.96911056     0.14200
C433        C  0.05102854  0.78130721  0.79944064    -0.05800
C434        C  0.01859772  0.77263073  0.81830784    -0.05700
C435        C  0.00420579  0.79557140  0.84333232    -0.23900
C436        C  0.02183243  0.82771770  0.84977160     0.18300
C437        C  0.05332970  0.83705173  0.82963392     0.15600
C438        C  0.06757246  0.81400229  0.80490387    -0.18900
C439        C  0.07112288  0.86892652  0.83518603    -0.20700
C440        C  0.05930064  0.89071845  0.86162737    -0.13300
C441        C  0.02929049  0.88142138  0.88337115     0.03400
C442        C  0.00969378  0.85017482  0.87657679    -0.25400
H443        H  0.00524897  0.74759788  0.81468451     0.08500
H444        H  0.97988559  0.78780310  0.85820153     0.12100
H445        H  0.09230309  0.82131089  0.79032819     0.12000
H446        H  0.09501712  0.87662291  0.81968090     0.11800
H447        H  0.07456477  0.91473950  0.86571268     0.12300
H448        H  0.98653670  0.84258751  0.89303979     0.14200
C449        C  0.42974882  0.68623009  0.79787995    -0.05800
C450        C  0.41450045  0.69104141  0.83098675    -0.05700
C451        C  0.42837403  0.67259727  0.85967625    -0.23900
C452        C  0.45745091  0.64834122  0.85581129     0.18300
C453        C  0.47471970  0.64450568  0.82315554     0.15600
C454        C  0.46101354  0.66389347  0.79426597    -0.18900
C455        C  0.50383002  0.61989814  0.81977486    -0.20700
C456        C  0.51380893  0.59783993  0.84769687    -0.13300
C457        C  0.49482499  0.59997634  0.87944550     0.03400
C458        C  0.46776496  0.62637184  0.88361655    -0.25400
H459        H  0.39070164  0.70830686  0.83443125     0.08500
H460        H  0.41509936  0.67611078  0.88460047     0.12100
H461        H  0.47283552  0.65983214  0.76880143     0.12000
H462        H  0.51769998  0.61662217  0.79511209     0.11800
H463        H  0.53470796  0.57772602  0.84377953     0.12300
H464        H  0.45314677  0.62854654  0.90807729     0.14200
C465        C  0.16842832  0.73677846  0.74902481    -0.05800
C466        C  0.18706028  0.76898005  0.74983052    -0.05700
C467        C  0.22625418  0.77066944  0.74693109    -0.23900
C468        C  0.24769471  0.74010734  0.74404652     0.18300
C469        C  0.22934263  0.70750007  0.74366067     0.15600
C470        C  0.18982693  0.70609941  0.74545518    -0.18900
C471        C  0.25092250  0.67685814  0.74215883    -0.20700
C472        C  0.29028464  0.67850720  0.74148674    -0.13300
C473        C  0.30865411  0.71079778  0.74123669     0.03400
C474        C  0.28718486  0.74154650  0.74214299    -0.25400
H475        H  0.17121851  0.79293463  0.75235620     0.08500
H476        H  0.23984771  0.79587638  0.74741252     0.12100
H477        H  0.17580084  0.68107461  0.74511298     0.12000
H478        H  0.23738352  0.65161963  0.74201627     0.11800
H479        H  0.30643390  0.65457521  0.74078817     0.12300
H480        H  0.30133862  0.76651436  0.74235423     0.14200
C481        C  0.16211249  0.23564117  0.57830474    -0.05800
C482        C  0.12775156  0.23931811  0.59577730    -0.05700
C483        C  0.10106398  0.26367612  0.58466584    -0.23900
C484        C  0.10840244  0.28518341  0.55611224     0.18300
C485        C  0.14202481  0.28066917  0.53730899     0.15600
C486        C  0.16845986  0.25550566  0.54819725    -0.18900
C487        C  0.14952483  0.30269505  0.50911033    -0.20700
C488        C  0.12485549  0.32989408  0.50066059    -0.13300
C489        C  0.09208326  0.33546482  0.52013588     0.03400
C490        C  0.08353419  0.31224330  0.54721601    -0.25400
H491        H  0.12202185  0.22416970  0.61893701     0.08500
H492        H  0.07538858  0.26666933  0.59928919     0.12100
H493        H  0.19492731  0.25311280  0.53468282     0.12000
H494        H  0.17511847  0.29969055  0.49437840     0.11800
H495        H  0.13228318  0.34738485  0.47967141     0.12300
H496        H  0.05834345  0.31607702  0.56236732     0.14200
C497        C  0.91581278  0.61127679  0.47216020    -0.05800
C498        C  0.92845126  0.63444562  0.44629620    -0.05700
C499        C  0.90355277  0.65667053  0.42896427    -0.23900
C500        C  0.86540160  0.65652324  0.43724734     0.18300
C501        C  0.85249127  0.63520676  0.46475769     0.15600
C502        C  0.87785839  0.61264376  0.48218908    -0.18900
C503        C  0.81426216  0.63625767  0.47353905    -0.20700
C504        C  0.78920090  0.65777386  0.45492352    -0.13300
C505        C  0.80178169  0.67782017  0.42670045     0.03400
C506        C  0.83996167  0.67715417  0.41812209    -0.25400
H507        H  0.95760416  0.63444959  0.43837590     0.08500
H508        H  0.91402098  0.67332929  0.40841574     0.12100
H509        H  0.86772700  0.59504058  0.50210269     0.12000
H510        H  0.80375268  0.62042223  0.49468808     0.11800
H511        H  0.75986094  0.65838410  0.46220114     0.12300
H512        H  0.84997839  0.69324193  0.39690662     0.14200
C513        C  0.04986249  0.67925783  0.71940192    -0.05800
C514        C  0.01532603  0.68492920  0.70214690    -0.05700
C515        C  0.00184664  0.66068621  0.67778003    -0.23900
C516        C  0.02286493  0.63058539  0.67018883     0.18300
C517        C  0.05633599  0.62396418  0.68921733     0.15600
C518        C  0.06919852  0.64792953  0.71378501    -0.18900
C519        C  0.07786151  0.59444634  0.68207852    -0.20700
C520        C  0.06781509  0.57266748  0.65487672    -0.13300
C521        C  0.03568388  0.57947358  0.63427861     0.03400
C522        C  0.01235275  0.60792081  0.64294547    -0.25400
H523        H  0.99991793  0.70892587  0.70598336     0.08500
H524        H  0.97593904  0.66626091  0.66377426     0.12100
H525        H  0.09564718  0.64306929  0.72725100     0.12000
H526        H  0.10339032  0.58888710  0.69670736     0.11800
H527        H  0.08591318  0.55067535  0.64948242     0.12300
H528        H  0.98738573  0.61342989  0.62750188     0.14200
C529        C  0.98683165  0.09546872  0.13565082    -0.05800
C530        C  0.00945375  0.12540946  0.13787043    -0.05700
C531        C  0.00116484  0.15192886  0.16171628    -0.23900
C532        C  0.97038586  0.14884691  0.18424044     0.18300
C533        C  0.94877815  0.11799248  0.18330625     0.15600
C534        C  0.95688071  0.09185664  0.15902430    -0.18900
C535        C  0.91844990  0.11415769  0.20586366    -0.20700
C536        C  0.90804025  0.14130965  0.22762900    -0.13300
C537        C  0.92750847  0.17317514  0.22753834     0.03400
C538        C  0.95972086  0.17638738  0.20654929    -0.25400
H539        H  0.03259045  0.12898899  0.12014220     0.08500
H540        H  0.01831434  0.17519486  0.16196511     0.12100
H541        H  0.93931466  0.06884980  0.15784483     0.12000
H542        H  0.90185484  0.09053481  0.20582631     0.11800
H543        H  0.88340367  0.13789519  0.24361799     0.12300
H544        H  0.97488584  0.20081368  0.20592408     0.14200
C545        C  0.98676819  0.36643318  0.38336247    -0.05800
C546        C  0.00834980  0.33564615  0.38345697    -0.05700
C547        C  0.99989981  0.30850181  0.36034723    -0.23900
C548        C  0.97013985  0.31188145  0.33622982     0.18300
C549        C  0.94973286  0.34355995  0.33491570     0.15600
C550        C  0.95785419  0.37026793  0.35854440    -0.18900
C551        C  0.92067294  0.34781374  0.31060208    -0.20700
C552        C  0.91032779  0.32041184  0.28910810    -0.13300
C553        C  0.92845991  0.28779934  0.29137032     0.03400
C554        C  0.95939307  0.28398689  0.31433623    -0.25400
H555        H  0.03082931  0.33203011  0.40230845     0.08500
H556        H  0.01618345  0.28465149  0.36178656     0.12100
H557        H  0.94128134  0.39401370  0.35790139     0.12000
H558        H  0.90508917  0.37206383  0.30889676     0.11800
H559        H  0.88674069  0.32435331  0.27149627     0.12300
H560        H  0.97351782  0.25903194  0.31659699     0.14200
C561        C  0.56026802  0.26122880  0.19118075    -0.05800
C562        C  0.58271228  0.25988261  0.16134846    -0.05700
C563        C  0.57552736  0.28135178  0.13286220    -0.23900
C564        C  0.54556637  0.30487557  0.13329406     0.18300
C565        C  0.52100862  0.30532894  0.16196534     0.15600
C566        C  0.52838696  0.28324689  0.19095655    -0.18900
C567        C  0.49062558  0.32887592  0.16141047    -0.20700
C568        C  0.48593918  0.35262929  0.13370114    -0.13300
C569        C  0.51173390  0.35351563  0.10617961     0.03400
C570        C  0.54083563  0.32875714  0.10588211    -0.25400
H571        H  0.60700437  0.24283580  0.16047868     0.08500
H572        H  0.59427837  0.28033271  0.11088983     0.12100
H573        H  0.51084033  0.28462551  0.21373760     0.12000
H574        H  0.47108675  0.32956208  0.18278547     0.11800
H575        H  0.46297393  0.37117195  0.13447894     0.12300
H576        H  0.56054882  0.32857546  0.08458876     0.14200
C577        C  0.66953585  0.21821323  0.25536946    -0.05800
C578        C  0.68579813  0.18627807  0.26537586    -0.05700
C579        C  0.72489230  0.18213521  0.26610470    -0.23900
C580        C  0.74840178  0.21019178  0.25779557     0.18300
C581        C  0.73220815  0.24266974  0.24843829     0.15600
C582        C  0.69293363  0.24625536  0.24658945    -0.18900
C583        C  0.75556450  0.27117886  0.24161672    -0.20700
C584        C  0.79456255  0.26772429  0.24450300    -0.13300
C585        C  0.81097512  0.23547928  0.25314651    -0.00400
C586        C  0.78776994  0.20658520  0.25931279    -0.25400
H587        H  0.66819549  0.16426005  0.27192136     0.08500
H588        H  0.73672513  0.15710591  0.27349168     0.12100
H589        H  0.68054579  0.27103764  0.23903599     0.12000
H590        H  0.74366501  0.29628494  0.23458719     0.11800
H591        H  0.81204520  0.29025256  0.23958928     0.12300
H592        H  0.80031166  0.18173596  0.26638325     0.14200
C593        C  0.79987150  0.04325864  0.80027395    -0.05800
C594        C  0.79106802  0.01332814  0.81972123    -0.05700
C595        C  0.81736211  0.99910357  0.84326040    -0.23900
C596        C  0.85285848  0.01458885  0.84768865     0.18300
C597        C  0.86230968  0.04391735  0.82730727     0.15600
C598        C  0.83598247  0.05783759  0.80373850    -0.18900
C599        C  0.89750807  0.05969019  0.83159661    -0.20700
C600        C  0.92269586  0.04742911  0.85684122    -0.13300
C601        C  0.91336250  0.01895950  0.87819672     0.03400
C602        C  0.87858889  0.00207376  0.87284308    -0.25400
H603        H  0.76341428  0.00173056  0.81772402     0.08500
H604        H  0.80958267  0.97656733  0.85863958     0.12100
H605        H  0.84333698  0.08078711  0.78874782     0.12000
H606        H  0.90520293  0.08211782  0.81601224     0.11800
H607        H  0.94926951  0.06078691  0.86010271     0.12300
H608        H  0.87087995  0.98013193  0.88910413     0.14200
C609        C  0.69696174  0.40102339  0.77558765    -0.05800
C610        C  0.70976939  0.42987325  0.79448351    -0.05700
C611        C  0.68572344  0.44733449  0.81720590    -0.23900
C612        C  0.64831993  0.43642069  0.82127018     0.18300
C613        C  0.63463992  0.40865425  0.80094069     0.15600
C614        C  0.65896731  0.39116830  0.77834190    -0.18900
C615        C  0.59727107  0.39782899  0.80463072    -0.20700
C616        C  0.57430370  0.41287231  0.82967623    -0.13300
C617        C  0.58804555  0.43925247  0.85154268     0.03400
C618        C  0.62488480  0.45172017  0.84629262    -0.25400
H619        H  0.73888857  0.43788911  0.79297440     0.08500
H620        H  0.69673324  0.46868136  0.83240963     0.12100
H621        H  0.64862924  0.36910809  0.76371658     0.12000
H622        H  0.58615333  0.37687044  0.78894755     0.11800
H623        H  0.54601439  0.40297455  0.83265461     0.12300
H624        H  0.63599800  0.47204633  0.86279148     0.14200
C625        C  0.91052911  0.44820070  0.63434951    -0.05800
C626        C  0.88387420  0.47309589  0.64493841    -0.05700
C627        C  0.85464753  0.46391609  0.66738047    -0.23900
C628        C  0.85129152  0.42959076  0.67965635     0.18300
C629        C  0.87921125  0.40496829  0.67089795     0.15600
C630        C  0.90871295  0.41444581  0.64871041    -0.18900
C631        C  0.87627513  0.37072128  0.68313238    -0.20700
C632        C  0.84500828  0.36037353  0.70215739    -0.13300
C633        C  0.81590121  0.38401021  0.70973305     0.03400
C634        C  0.81985102  0.41905280  0.69926787    -0.25400
H635        H  0.88471302  0.49946206  0.63485087     0.08500
H636        H  0.83390812  0.48338255  0.67410527     0.12100
H637        H  0.92911460  0.39493013  0.64125375     0.12000
H638        H  0.89760375  0.35157210  0.67704103     0.11800
H639        H  0.84330171  0.33338850  0.71031575     0.12300
H640        H  0.79781683  0.43764879  0.70493975     0.14200
C641        C  0.75394665  0.15306711  0.75053873    -0.05800
C642        C  0.79020726  0.16740944  0.74893712    -0.05700
C643        C  0.79508136  0.20327392  0.74483093    -0.23900
C644        C  0.76376821  0.22550998  0.74309705     0.18300
C645        C  0.72716609  0.21139897  0.74503063     0.15600
C646        C  0.72247602  0.17522300  0.74811463    -0.18900
C647        C  0.69593165  0.23379127  0.74463461    -0.20700
C648        C  0.70092384  0.26986882  0.74286501    -0.13300
C649        C  0.73717169  0.28413683  0.74061790     0.03400
C650        C  0.76848563  0.26167267  0.74027830    -0.25400
H651        H  0.81484639  0.15081716  0.75066618     0.08500
H652        H  0.82334461  0.21366506  0.74356315     0.12100
H653        H  0.69439628  0.16443013  0.74975001     0.12000
H654        H  0.66767991  0.22343631  0.74626728     0.11800
H655        H  0.67639976  0.28664269  0.74311279     0.12300
H656        H  0.79663029  0.27237432  0.73898776     0.14200
C657        C  0.40588242  0.10955962  0.54572143    -0.05800
C658        C  0.41070974  0.12369328  0.57907569    -0.05700
C659        C  0.38290889  0.14447738  0.59372461    -0.23900
C660        C  0.34954852  0.15160132  0.57542147     0.18300
C661        C  0.34521756  0.13972850  0.54101922     0.15600
C662        C  0.37354554  0.11896168  0.52623855    -0.18900
C663        C  0.31177191  0.14736533  0.52275869    -0.20700
C664        C  0.28215140  0.16471423  0.53913526    -0.13300
C665        C  0.28541816  0.17457453  0.57407714     0.03400
C666        C  0.31979389  0.16894983  0.59162763    -0.25400
H667        H  0.43535524  0.11743245  0.59464974     0.08500
H668        H  0.38687604  0.15378475  0.61997270     0.12100
H669        H  0.36933415  0.10852107  0.50045645     0.12000
H670        H  0.30799505  0.13882828  0.49623461     0.11800
H671        H  0.25608503  0.16895383  0.52494915     0.12300
H672        H  0.32297595  0.17696897  0.61840443     0.14200
C673        C  0.61089366  0.86352625  0.45929031    -0.05800
C674        C  0.62049905  0.86888232  0.42432806    -0.05700
C675        C  0.64668476  0.84770755  0.40823682    -0.23900
C676        C  0.66370175  0.82033951  0.42657348     0.18300
C677        C  0.65517839  0.81478767  0.46194518     0.15600
C678        C  0.62901001  0.83678538  0.47836075    -0.18900
C679        C  0.67244200  0.78689931  0.47977851    -0.20700
C680        C  0.69721065  0.76454865  0.46250428    -0.13300
C681        C  0.70521411  0.76976651  0.42712606     0.03400
C682        C  0.68859767  0.79811885  0.40962366    -0.25400
H683        H  0.60752261  0.88957814  0.40913559     0.08500
H684        H  0.65312433  0.85239962  0.38117831     0.12100
H685        H  0.62188403  0.83242094  0.50531778     0.12000
H686        H  0.66642524  0.78209656  0.50689238     0.11800
H687        H  0.70972191  0.74296920  0.47673608     0.12300
H688        H  0.69468250  0.80284962  0.38249230     0.14200
C689        C  0.51997859  0.10709629  0.40158477    -0.05800
C690        C  0.54755166  0.13115130  0.41183179    -0.05700
C691        C  0.55916525  0.15757105  0.38946968    -0.23900
C692        C  0.54382491  0.16034769  0.35600590     0.18300
C693        C  0.51490554  0.13741457  0.34549104     0.15600
C694        C  0.50270961  0.11096857  0.36863020    -0.18900
C695        C  0.50023077  0.14050497  0.31151237    -0.20700
C696        C  0.51532945  0.16481717  0.28791713    -0.13300
C697        C  0.54530141  0.18641211  0.29794747     0.03400
C698        C  0.55849429  0.18461508  0.33241103    -0.25400
H699        H  0.56105197  0.12881941  0.43707062     0.08500
H700        H  0.58123201  0.17505832  0.39794202     0.12100
H701        H  0.48166610  0.09236326  0.36034253     0.12000
H702        H  0.47808901  0.12325002  0.30278648     0.11800
H703        H  0.50504956  0.16536566  0.26138603     0.12300
H704        H  0.58167085  0.20111081  0.34043545     0.14200
C705        C  0.48181301  0.85039760  0.61339721    -0.05800
C706        C  0.50203669  0.84970989  0.64493339    -0.05700
C707        C  0.49338338  0.82514346  0.67087970    -0.23900
C708        C  0.46464466  0.80058177  0.66554673     0.18300
C709        C  0.44557339  0.80021226  0.63317130     0.15600
C710        C  0.45414493  0.82504523  0.60754176    -0.18900
C711        C  0.41711144  0.77584141  0.62727841    -0.20700
C712        C  0.40603259  0.75327970  0.65373556    -0.13300
C713        C  0.42326515  0.75423925  0.68669816     0.03400
C714        C  0.45354033  0.77730927  0.69220125    -0.25400
H715        H  0.52334219  0.86914503  0.65010502     0.08500
H716        H  0.50849198  0.82593359  0.69539860     0.12100
H717        H  0.43854008  0.82523986  0.58322454     0.12000
H718        H  0.40251400  0.77496615  0.60249311     0.11800
H719        H  0.38300218  0.73556335  0.64867115     0.12300
H720        H  0.46693553  0.77846192  0.71753688     0.14200
C721        C  0.59407257  0.98918125  0.64560969    -0.05800
C722        C  0.62492924  0.96663338  0.65121016    -0.05700
C723        C  0.65253182  0.97425167  0.67619452    -0.23900
C724        C  0.65002975  0.00473398  0.69586415     0.18300
C725        C  0.61778515  0.02615531  0.69213713     0.15600
C726        C  0.58986424  0.01798912  0.66753286    -0.18900
C727        C  0.61515120  0.05682284  0.71131028    -0.20700
C728        C  0.64543220  0.06776905  0.73165625    -0.13300
C729        C  0.67867701  0.04796199  0.73392022     0.03400
C730        C  0.68016937  0.01548393  0.71731124    -0.25400
H731        H  0.62877833  0.94392479  0.63514188     0.08500
H732        H  0.67674702  0.95722479  0.67886841     0.12100
H733        H  0.56606417  0.03540027  0.66400839     0.12000
H734        H  0.59050803  0.07337499  0.70905776     0.11800
H735        H  0.64348179  0.09267392  0.74452808     0.12300
H736        H  0.70574826  0.00009866  0.71874261     0.14200
C737        C  0.10387592  0.94148437  0.14206036    -0.05800
C738        C  0.09391748  0.91020184  0.15907382    -0.05700
C739        C  0.11963810  0.89221238  0.17997743    -0.23900
C740        C  0.15596532  0.90511466  0.18477821     0.18300
C741        C  0.16596382  0.93744471  0.16965317     0.15600
C742        C  0.13984486  0.95550273  0.14831601    -0.18900
C743        C  0.20232070  0.95046631  0.17531908    -0.20700
C744        C  0.22862046  0.93122568  0.19488448    -0.13300
C745        C  0.21924973  0.89837641  0.20864797     0.03400
C746        C  0.18265211  0.88571527  0.20382776    -0.25400
H747        H  0.06643996  0.89867518  0.15523936     0.08500
H748        H  0.11134911  0.86770007  0.19169220     0.12100
H749        H  0.14805900  0.97947326  0.13549309     0.12000
H750        H  0.21060033  0.97523971  0.16419321     0.11800
H751        H  0.25671372  0.94155028  0.19832541     0.12300
H752        H  0.17501215  0.86063789  0.21474671     0.14200
C753        C  0.33287221  0.88992283  0.28241086    -0.05800
C754        C  0.36703947  0.87235177  0.28838675    -0.05700
C755        C  0.39466763  0.88666047  0.30974888    -0.23900
C756        C  0.38835944  0.91849075  0.32620143     0.18300
C757        C  0.35435347  0.93673933  0.32033546     0.15600
C758        C  0.32693270  0.92255655  0.29799725    -0.18900
C759        C  0.34799806  0.96813021  0.33791122    -0.20700
C760        C  0.37425239  0.98026058  0.36239394    -0.13300
C761        C  0.40751749  0.96144050  0.36924626     0.03400
C762        C  0.41490636  0.93135431  0.34975867    -0.25400
H763        H  0.37239854  0.84733314  0.27661275     0.08500
H764        H  0.42060026  0.87233462  0.31414902     0.12100
H765        H  0.30051808  0.93618566  0.29386621     0.12000
H766        H  0.32209821  0.98255014  0.33374547     0.11800
H767        H  0.36775947  0.00346128  0.37697819     0.12300
H768        H  0.44052593  0.91657502  0.35432085     0.14200
C769        C  0.30975220  0.54545015  0.20182544    -0.05800
C770        C  0.30681688  0.50984045  0.19402272    -0.05700
C771        C  0.33313768  0.49385286  0.17256193    -0.23900
C772        C  0.36299875  0.51314987  0.15883273     0.18300
C773        C  0.36680466  0.54865396  0.16759119     0.15600
C774        C  0.34019108  0.56453827  0.18881035    -0.18900
C775        C  0.39679588  0.56799218  0.15449166    -0.20700
C776        C  0.42219787  0.55267442  0.13198512    -0.13300
C777        C  0.41796497  0.51774423  0.12180931     0.03400
C778        C  0.38858490  0.49787619  0.13590082    -0.25400
H779        H  0.28362224  0.49452674  0.20376851     0.08500
H780        H  0.32983106  0.46656957  0.16631516     0.12100
H781        H  0.34306421  0.59191594  0.19492736     0.12000
H782        H  0.40021718  0.59517963  0.16111641     0.11800
H783        H  0.44447840  0.56873718  0.12161005     0.12300
H784        H  0.38509267  0.47091189  0.12845030     0.14200
C785        C  0.20348818  0.54104368  0.28294240    -0.05800
C786        C  0.21542644  0.51029257  0.29981316    -0.05700
C787        C  0.19241247  0.49398681  0.32438251    -0.23900
C788        C  0.15697341  0.50801006  0.33212263     0.18300
C789        C  0.14428545  0.53795570  0.31382871     0.15600
C790        C  0.16753338  0.55421318  0.28958043    -0.18900
C791        C  0.10896552  0.55203620  0.32082492    -0.20700
C792        C  0.08711155  0.53787614  0.34704277    -0.13300
C793        C  0.10004522  0.50934677  0.36701842     0.03400
C794        C  0.13458461  0.49364290  0.35862315    -0.25400
H795        H  0.24311517  0.49965027  0.29502285     0.08500
H796        H  0.20268237  0.47097111  0.33789127     0.12100
H797        H  0.15789765  0.57765750  0.27634775     0.12000
H798        H  0.09868229  0.57471126  0.30673054     0.11800
H799        H  0.06036771  0.55015242  0.35247320     0.12300
H800        H  0.14486504  0.47165780  0.37377843     0.14200
C801        C  0.24770566  0.65370304  0.23812156    -0.05800
C802        C  0.21348957  0.67078335  0.24461454    -0.05700
C803        C  0.21148305  0.70720034  0.24476216    -0.23900
C804        C  0.24385793  0.72723657  0.23921835     0.18300
C805        C  0.27854247  0.71025282  0.23334724     0.15600
C806        C  0.28009274  0.67372865  0.23217226    -0.18900
C807        C  0.31129403  0.73006346  0.22944465    -0.20700
C808        C  0.30980803  0.76633148  0.23157971    -0.13300
C809        C  0.27543138  0.78359275  0.23664650     0.03400
C810        C  0.24237312  0.76388439  0.24010145    -0.25400
H811        H  0.18816697  0.65594118  0.24934232     0.08500
H812        H  0.18470856  0.71967756  0.24964749     0.12100
H813        H  0.30677533  0.66088088  0.22767299     0.12000
H814        H  0.33816915  0.71748584  0.22525300     0.11800
H815        H  0.33560690  0.78102397  0.22898304     0.12300
H816        H  0.21585474  0.77700040  0.24462780     0.14200
loop_ 
_geom_bond_atom_site_label_1 
_geom_bond_atom_site_label_2 
_geom_bond_distance 
_geom_bond_site_symmetry_2 
_ccdc_geom_bond_type 
C1            N2   1.358       .  A
C1            N6   1.361       .  A
C1          C785   1.477       .  S
N2            C3   1.359       .  A
C3            N4   1.360       .  A
C3          C769   1.478       .  S
N4            C5   1.357       .  A
C5            N6   1.357       .  A
C5          C801   1.483       .  S
C7            N8   1.359       .  A
C7           N12   1.358       .  A
C7          C753   1.480       .  S
N8            C9   1.357       .  A
C9           N10   1.361       .  A
C9          C809   1.480       .  S
N10          C11   1.364       .  A
C11          N12   1.360       .  A
C11         C745   1.480       .  S
Zr13         O14   2.441       .  S
Zr13         O15   2.455       .  S
Zr13         O16   2.437       .  S
Zr13         O19   2.459       .  S
Zr13         O21   2.383       .  S
Zr13         O22   2.386       .  S
Zr13         O23   2.419       .  S
Zr13         O24   2.402       .  S
O14          H70   0.990       .  S
O14          H78   0.990       .  S
O15          C35   1.287       .  A
O16          C37   1.284       .  A
O17         Zr27   2.408       .  S
O17          C36   1.281       .  A
O18         Zr26   2.440       .  S
O18          C37   1.287   1_545  A
O19          C36   1.287       .  A
O20         Zr28   2.423       .  S
O20          C35   1.283       .  A
O21         Zr26   2.395   1_565  S
O21         Zr28   2.379       .  S
O22         Zr27   2.389       .  S
O22         Zr28   2.380       .  S
O22          H57   0.965       .  S
O23         Zr26   2.397   1_565  S
O23         Zr43   2.398   1_565  S
O23          H60   0.965   1_565  S
O24         Zr27   2.380       .  S
O24         Zr43   2.387   1_565  S
Zr25         O50   2.442       .  S
Zr25         O44   2.463       .  S
Zr25         O52   2.455   1_545  S
Zr25         O40   2.449       .  S
Zr25         O31   2.410   1_545  S
Zr25         O32   2.416       .  S
Zr25         O33   2.387       .  S
Zr25         O34   2.386   1_545  S
Zr26         O45   2.436       .  S
Zr26         O38   2.434       .  S
Zr26         O39   2.434       .  S
Zr26         O32   2.396       .  S
Zr26         O33   2.393       .  S
Zr27         O29   2.436       .  S
Zr27         O51   2.438       .  S
Zr27         O53   2.403       .  S
Zr27         O31   2.385       .  S
Zr27         O34   2.392       .  S
Zr28         O54   2.435       .  S
Zr28         O55   2.435       .  S
Zr28         O30   2.438       .  S
Zr28         O31   2.398       .  S
Zr28         O32   2.393   1_565  S
O29          H66   0.990       .  S
O30          H61   0.990       .  S
O30          H75   0.990       .  S
O32          H58   0.965       .  S
O33         Zr43   2.373       .  S
O34         Zr43   2.379   1_565  S
O34          H59   0.966       .  S
C35         C705   1.485       .  S
C36         C673   1.482       .  S
C37         C721   1.490       .  S
O38          H74   0.990       .  S
O39          C41   1.287       .  A
O40          C41   1.288       .  A
C41         C657   1.491       .  S
O42         Zr43   2.440       .  S
O42          H71   0.990       .  S
Zr43         O46   2.437       .  S
Zr43         O47   2.440   1_545  S
Zr43         O48   2.421       .  S
O44          C49   1.289       .  A
O45          H62   0.990       .  S
O45          H77   0.990       .  S
O46          H63   0.990       .  S
O47          H67   0.990       .  S
O47          H76   0.991       .  S
O48          C49   1.283       .  A
C49         C689   1.485       .  S
O50          H69   0.990       .  S
O50          H73   0.991       .  S
O51          H65   0.990       .  S
O51          H72   0.990       .  S
O52          C56   1.287       .  A
O53          C56   1.280       .  A
O54          H64   0.990       .  S
O55          H68   0.990       .  S
C56         C761   1.486       .  S
C79          N80   1.368       .  A
C79          N84   1.361       .  A
C79         C609   1.487       .  S
N80          C81   1.366       .  A
C81          N82   1.359       .  A
C81         C633   1.491       .  S
N82          C83   1.354       .  A
C83          N84   1.356       .  A
C83         C649   1.481       .  S
C85          N86   1.367       .  A
C85          N90   1.359       .  A
C85         C593   1.484       .  S
N86          C87   1.366       .  A
C87          N88   1.359       .  A
C87         C729   1.481       .  S
N88          C89   1.353       .  A
C89          N90   1.353       .  A
C89         C641   1.478       .  S
C91          N92   1.360       .  A
C91          N96   1.373       .  A
C91         C697   1.487       .  S
N92          C93   1.351       .  A
C93          N94   1.350       .  A
C93         C577   1.476       .  S
N94          C95   1.359       .  A
C95          N96   1.371       .  A
C95         C561   1.489       .  S
C97          N98   1.373       .  A
C97         N102   1.358       .  A
C97         C553   1.493       .  S
N98          C99   1.375       .  A
C99         N100   1.363       .  A
C99         C537   1.495       .  S
N100        C101   1.352       .  A
C101        N102   1.349       .  A
C101        C585   1.475       .  S
Zr103       O104   2.442       .  S
Zr103       O105   2.462       .  S
Zr103       O106   2.450       .  S
Zr103       O109   2.465       .  S
Zr103       O111   2.386   1_655  S
Zr103       O112   2.389   1_655  S
Zr103       O113   2.423       .  S
Zr103       O114   2.407       .  S
O104        H160   0.991       .  S
O104        H168   0.990       .  S
O105        C125   1.287   1_655  A
O106        C127   1.286       .  A
O107       Zr117   2.398   1_655  S
O107        C126   1.279       .  A
O108       Zr116   2.439   1_655  S
O108        C127   1.286       .  A
O109        C126   1.289       .  A
O110       Zr118   2.415       .  S
O110        C125   1.282       .  A
O111       Zr116   2.396       .  S
O111       Zr118   2.378       .  S
O112       Zr117   2.390       .  S
O112       Zr118   2.379       .  S
O112        H147   0.966       .  S
O113       Zr116   2.402   1_655  S
O113       Zr133   2.405       .  S
O113        H150   0.965       .  S
O114       Zr117   2.386   1_655  S
O114       Zr133   2.393       .  S
Zr115       O140   2.441       .  S
Zr115       O134   2.447       .  S
Zr115       O142   2.453       .  S
Zr115       O130   2.422       .  S
Zr115       O121   2.405       .  S
Zr115       O122   2.414       .  S
Zr115       O123   2.386   1_455  S
Zr115       O124   2.378       .  S
Zr116       O135   2.436   1_455  S
Zr116       O128   2.435       .  S
Zr116       O129   2.438       .  S
Zr116       O122   2.401       .  S
Zr116       O123   2.393   1_455  S
Zr117       O119   2.437   1_455  S
Zr117       O141   2.437       .  S
Zr117       O143   2.404       .  S
Zr117       O121   2.382       .  S
Zr117       O124   2.391       .  S
Zr118       O144   2.436       .  S
Zr118       O145   2.436       .  S
Zr118       O120   2.437       .  S
Zr118       O121   2.398       .  S
Zr118       O122   2.389       .  S
O119        H156   0.990   1_655  S
O120        H151   0.990       .  S
O120        H165   0.990       .  S
O122        H148   0.965       .  S
O123       Zr133   2.373       .  S
O124       Zr133   2.373   1_455  S
O124        H149   0.966       .  S
C125        C521   1.492       .  S
C126        C497   1.484       .  S
C127        C625   1.494       .  S
O128        H164   0.990       .  S
O129        C131   1.287       .  A
O130        C131   1.282       .  A
C131        C489   1.481       .  S
O132       Zr133   2.439       .  S
O132        H161   0.990       .  S
Zr133       O136   2.437       .  S
Zr133       O137   2.440       .  S
Zr133       O138   2.439       .  S
O134        C139   1.286   1_455  A
O135        H152   0.990       .  S
O135        H167   0.990       .  S
O136        H153   0.990       .  S
O137        H157   0.990       .  S
O137        H166   0.990       .  S
O138        C139   1.285       .  A
C139        C545   1.490       .  S
O140        H159   0.990       .  S
O140        H163   0.990       .  S
O141        H155   0.990       .  S
O141        H162   0.990       .  S
O142        C146   1.287       .  A
O143        C146   1.280       .  A
O144        H154   0.990       .  S
O145        H158   0.990       .  S
C146        C793   1.482       .  S
C169        N170   1.368       .  A
C169        N174   1.362       .  A
C169        C449   1.485       .  S
N170        C171   1.369       .  A
C171        N172   1.362       .  A
C171        C713   1.488       .  S
N172        C173   1.354       .  A
C173        N174   1.355       .  A
C173        C473   1.478       .  S
C175        N176   1.369       .  A
C175        N180   1.364       .  A
C175        C433   1.493       .  S
N176        C177   1.367       .  A
C177        N178   1.360       .  A
C177        C513   1.486       .  S
N178        C179   1.353       .  A
C179        N180   1.357       .  A
C179        C465   1.486       .  S
Zr181       O182   2.441       .  S
Zr181       O183   2.479       .  S
Zr181       O184   2.441       .  S
Zr181       O187   2.473   1_556  S
Zr181       O189   2.388   1_655  S
Zr181       O190   2.384   1_655  S
Zr181       O191   2.431   1_565  S
Zr181       O192   2.400   1_556  S
O182        H238   0.990       .  S
O182        H246   0.991       .  S
O183        C203   1.290   1_655  A
O184        C205   1.285   1_565  A
O185       Zr195   2.399   1_655  S
O185        C204   1.279       .  A
O186       Zr194   2.432   1_655  S
O186        C205   1.286       .  A
O187        C204   1.290       .  A
O188       Zr196   2.406       .  S
O188        C203   1.280       .  A
O189       Zr194   2.398   1_565  S
O189       Zr196   2.376       .  S
O190       Zr195   2.390   1_556  S
O190       Zr196   2.381       .  S
O190        H225   0.966       .  S
O191       Zr194   2.400   1_655  S
O191       Zr211   2.403   1_556  S
O191        H228   0.964       .  S
O192       Zr195   2.374   1_655  S
O192       Zr211   2.385   1_565  S
Zr193       O218   2.441       .  S
Zr193       O212   2.476       .  S
Zr193       O220   2.475   1_545  S
Zr193       O208   2.441       .  S
Zr193       O199   2.411   1_545  S
Zr193       O200   2.420   1_554  S
Zr193       O201   2.388       .  S
Zr193       O202   2.380   1_445  S
Zr194       O213   2.436   1_455  S
Zr194       O206   2.436       .  S
Zr194       O207   2.430       .  S
Zr194       O200   2.401       .  S
Zr194       O201   2.396   1_556  S
Zr195       O197   2.434   1_455  S
Zr195       O219   2.436       .  S
Zr195       O221   2.389       .  S
Zr195       O199   2.387       .  S
Zr195       O202   2.397   1_455  S
Zr196       O222   2.437       .  S
Zr196       O223   2.437       .  S
Zr196       O198   2.438       .  S
Zr196       O199   2.402   1_556  S
Zr196       O200   2.387   1_565  S
O197        H234   0.990       .  S
O198        H229   0.990       .  S
O198        H243   0.990       .  S
O200        H226   0.965       .  S
O201       Zr211   2.373   1_455  S
O202       Zr211   2.382   1_565  S
O202        H227   0.965       .  S
C203        C441   1.494       .  S
C204        C401   1.479       .  S
C205        C601   1.485       .  S
O206        H242   0.990       .  S
O207        C209   1.286       .  A
O208        C209   1.286   1_554  A
C209        C417   1.485       .  S
O210       Zr211   2.438       .  S
O210        H239   0.990       .  S
Zr211       O214   2.438       .  S
Zr211       O215   2.437   1_545  S
Zr211       O216   2.427       .  S
O212        C217   1.291   1_455  A
O213        H230   0.990       .  S
O213        H245   0.990       .  S
O214        H231   0.990       .  S
O215        H235   0.990       .  S
O215        H244   0.990       .  S
O216        C217   1.283       .  A
C217        C529   1.497       .  S
O218        H237   0.990       .  S
O218        H241   0.990       .  S
O219        H233   0.990       .  S
O219        H240   0.990       .  S
O220        C224   1.290       .  A
O221        C224   1.277       .  A
O222        H232   0.990       .  S
O223        H236   0.990   1_556  S
C224        C737   1.490       .  S
C247        N248   1.365       .  A
C247        N252   1.361       .  A
C247        C665   1.484       .  S
N248        C249   1.364       .  A
C249        N250   1.354       .  A
C249        C481   1.479       .  S
N250        C251   1.351       .  A
C251        N252   1.357       .  A
C251        C385   1.476       .  S
C253        N254   1.357       .  A
C253        N258   1.366       .  A
C253        C369   1.479       .  S
N254        C255   1.350       .  A
C255        N256   1.350       .  A
C255        C393   1.472       .  S
N256        C257   1.357       .  A
C257        N258   1.365       .  A
C257        C425   1.475       .  S
Zr259       O260   2.442       .  S
Zr259       O261   2.468       .  S
Zr259       O262   2.463       .  S
Zr259       O265   2.477       .  S
Zr259       O267   2.391       .  S
Zr259       O268   2.388       .  S
Zr259       O269   2.421       .  S
Zr259       O270   2.407   1_556  S
O260        H316   0.990       .  S
O260        H324   0.991       .  S
O261        C281   1.289       .  A
O262        C283   1.288       .  A
O263       Zr273   2.390       .  S
O263        C282   1.278       .  A
O264       Zr272   2.431       .  S
O264        C283   1.285       .  A
O265        C282   1.291   1_556  A
O266       Zr274   2.412       .  S
O266        C281   1.281       .  A
O267       Zr272   2.399       .  S
O267       Zr274   2.386       .  S
O268       Zr273   2.392   1_556  S
O268       Zr274   2.382       .  S
O268        H303   0.966       .  S
O269       Zr272   2.401       .  S
O269       Zr289   2.397   1_556  S
O269        H306   0.964       .  S
O270       Zr273   2.385       .  S
O270       Zr289   2.399       .  S
Zr271       O296   2.440       .  S
Zr271       O290   2.443       .  S
Zr271       O298   2.450       .  S
Zr271       O286   2.426       .  S
Zr271       O277   2.395       .  S
Zr271       O278   2.410   1_554  S
Zr271       O279   2.383   1_554  S
Zr271       O280   2.376       .  S
Zr272       O291   2.436       .  S
Zr272       O284   2.437       .  S
Zr272       O285   2.428       .  S
Zr272       O278   2.397       .  S
Zr272       O279   2.396       .  S
Zr273       O275   2.436       .  S
Zr273       O297   2.437       .  S
Zr273       O299   2.398       .  S
Zr273       O277   2.385       .  S
Zr273       O280   2.387       .  S
Zr274       O300   2.436       .  S
Zr274       O301   2.436       .  S
Zr274       O276   2.438       .  S
Zr274       O277   2.385   1_556  S
Zr274       O278   2.391       .  S
O275        H312   0.990       .  S
O276        H307   0.990       .  S
O276        H321   0.990       .  S
O278        H304   0.966       .  S
O279       Zr289   2.369   1_556  S
O280       Zr289   2.375       .  S
O280        H305   0.965       .  S
C281        C457   1.489       .  S
C282        C353   1.476       .  S
C283        C617   1.493       .  S
O284        H320   0.990       .  S
O285        C287   1.285       .  A
O286        C287   1.283   1_554  A
C287        C377   1.479       .  S
O288       Zr289   2.439       .  S
O288        H317   0.991       .  S
Zr289       O292   2.437   1_554  S
Zr289       O293   2.439       .  S
Zr289       O294   2.437       .  S
O290        C295   1.285       .  A
O291        H308   0.990       .  S
O291        H323   0.990       .  S
O292        H309   0.990   1_556  S
O293        H313   0.990       .  S
O293        H322   0.990       .  S
O294        C295   1.286       .  A
C295        C569   1.491       .  S
O296        H315   0.990       .  S
O296        H319   0.990       .  S
O297        H311   0.990       .  S
O297        H318   0.990       .  S
O298        C302   1.287       .  A
O299        C302   1.279       .  A
O300        H310   0.990       .  S
O301        H314   0.990       .  S
C302        C777   1.479       .  S
C325        N326   1.360       .  A
C325        N330   1.364       .  A
C325        C505   1.476       .  S
N326        C327   1.358       .  A
C327        N328   1.360       .  A
C327        C681   1.485       .  S
N328        C329   1.357       .  A
C329        N330   1.361       .  A
C329        C337   1.484       .  S
C331        N332   1.355       .  A
C331        N336   1.362       .  A
C331        C361   1.484       .  S
N332        C333   1.357       .  A
C333        N334   1.363       .  A
C333        C409   1.485       .  S
N334        C335   1.362       .  A
C335        N336   1.362       .  A
C335        C345   1.487       .  S
C337        C338   1.406       .  A
C337        C342   1.407       .  A
C338        C339   1.400       .  A
C338        H347   1.083       .  S
C339        C340   1.403       .  A
C339        H348   1.084       .  S
C340        C346   1.410       .  A
C340        C341   1.415       .  A
C341        C343   1.403       .  A
C341        C342   1.410       .  A
C342        H349   1.084       .  S
C343        C344   1.401       .  A
C343        H350   1.083       .  S
C344        C345   1.406       .  A
C344        H351   1.083       .  S
C345        C346   1.408       .  A
C346        H352   1.084       .  S
C353        C354   1.406       .  A
C353        C358   1.405       .  A
C354        C355   1.392       .  A
C354        H363   1.084       .  S
C355        C356   1.397       .  A
C355        H364   1.084       .  S
C356        C362   1.403       .  A
C356        C357   1.417       .  A
C357        C359   1.402       .  A
C357        C358   1.412       .  A
C358        H365   1.084   1_554  S
C359        C360   1.401       .  A
C359        H366   1.083   1_554  S
C360        C361   1.409       .  A
C360        H367   1.083       .  S
C361        C362   1.403       .  A
C362        H368   1.084       .  S
C369        C370   1.408       .  A
C369        C374   1.406       .  A
C370        C371   1.390       .  A
C370        H379   1.083       .  S
C371        C372   1.397       .  A
C371        H380   1.084       .  S
C372        C378   1.399       .  A
C372        C373   1.415       .  A
C373        C375   1.402       .  A
C373        C374   1.408       .  A
C374        H381   1.084       .  S
C375        C376   1.399       .  A
C375        H382   1.083       .  S
C376        C377   1.408       .  A
C376        H383   1.083   1_556  S
C377        C378   1.403       .  A
C378        H384   1.085       .  S
C385        C386   1.407       .  A
C385        C390   1.404       .  A
C386        C387   1.394       .  A
C386        H395   1.083       .  S
C387        C388   1.400       .  A
C387        H396   1.084       .  S
C388        C394   1.400       .  A
C388        C389   1.414       .  A
C389        C391   1.401       .  A
C389        C390   1.402       .  A
C390        H397   1.084       .  S
C391        C392   1.396       .  A
C391        H398   1.084       .  S
C392        C393   1.405       .  A
C392        H399   1.083       .  S
C393        C394   1.403       .  A
C394        H400   1.085       .  S
C401        C402   1.409       .  A
C401        C406   1.405       .  A
C402        C403   1.391       .  A
C402        H411   1.083       .  S
C403        C404   1.396       .  A
C403        H412   1.084       .  S
C404        C410   1.403       .  A
C404        C405   1.416       .  A
C405        C407   1.401       .  A
C405        C406   1.411       .  A
C406        H413   1.084       .  S
C407        C408   1.399       .  A
C407        H414   1.083   1_554  S
C408        C409   1.410       .  A
C408        H415   1.083       .  S
C409        C410   1.403       .  A
C410        H416   1.084       .  S
C417        C418   1.408   1_556  A
C417        C422   1.405       .  A
C418        C419   1.401       .  A
C418        H427   1.083       .  S
C419        C420   1.403   1_554  A
C419        H428   1.083       .  S
C420        C426   1.409       .  A
C420        C421   1.415       .  A
C421        C423   1.398       .  A
C421        C422   1.400       .  A
C422        H429   1.084       .  S
C423        C424   1.391       .  A
C423        H430   1.084       .  S
C424        C425   1.405       .  A
C424        H431   1.084       .  S
C425        C426   1.406       .  A
C426        H432   1.084       .  S
C433        C434   1.409       .  A
C433        C438   1.405       .  A
C434        C435   1.410       .  A
C434        H443   1.083       .  S
C435        C436   1.409       .  A
C435        H444   1.083   1_455  S
C436        C442   1.421       .  A
C436        C437   1.414       .  A
C437        C439   1.397       .  A
C437        C438   1.403       .  A
C438        H445   1.084       .  S
C439        C440   1.391       .  A
C439        H446   1.084       .  S
C440        C441   1.408       .  A
C440        H447   1.083       .  S
C441        C442   1.414       .  A
C442        H448   1.084   1_455  S
C449        C450   1.405       .  A
C449        C454   1.411       .  A
C450        C451   1.394       .  A
C450        H459   1.084       .  S
C451        C452   1.400       .  A
C451        H460   1.084       .  S
C452        C458   1.405       .  A
C452        C453   1.414       .  A
C453        C455   1.408       .  A
C453        C454   1.417       .  A
C454        H461   1.084       .  S
C455        C456   1.407       .  A
C455        H462   1.083       .  S
C456        C457   1.406       .  A
C456        H463   1.083       .  S
C457        C458   1.407       .  A
C458        H464   1.085       .  S
C465        C466   1.405       .  A
C465        C470   1.409       .  A
C466        C467   1.401       .  A
C466        H475   1.083       .  S
C467        C468   1.404       .  A
C467        H476   1.084       .  S
C468        C474   1.408       .  A
C468        C469   1.414       .  A
C469        C471   1.405       .  A
C469        C470   1.409       .  A
C470        H477   1.084       .  S
C471        C472   1.402       .  A
C471        H478   1.084       .  S
C472        C473   1.403       .  A
C472        H479   1.083       .  S
C473        C474   1.406       .  A
C474        H480   1.084       .  S
C481        C482   1.408       .  A
C481        C486   1.405       .  A
C482        C483   1.393       .  A
C482        H491   1.083       .  S
C483        C484   1.398       .  A
C483        H492   1.084       .  S
C484        C490   1.401       .  A
C484        C485   1.415       .  A
C485        C487   1.400       .  A
C485        C486   1.406       .  A
C486        H493   1.084       .  S
C487        C488   1.397       .  A
C487        H494   1.084       .  S
C488        C489   1.409       .  A
C488        H495   1.083       .  S
C489        C490   1.404       .  A
C490        H496   1.084       .  S
C497        C498   1.409       .  A
C497        C502   1.408       .  A
C498        C499   1.391       .  A
C498        H507   1.083       .  S
C499        C500   1.397       .  A
C499        H508   1.084       .  S
C500        C506   1.402       .  A
C500        C501   1.416       .  A
C501        C503   1.404       .  A
C501        C502   1.411       .  A
C502        H509   1.084       .  S
C503        C504   1.402       .  A
C503        H510   1.083       .  S
C504        C505   1.405       .  A
C504        H511   1.083       .  S
C505        C506   1.400       .  A
C506        H512   1.085       .  S
C513        C514   1.407       .  A
C513        C518   1.404       .  A
C514        C515   1.409       .  A
C514        H523   1.083   1_455  S
C515        C516   1.409       .  A
C515        H524   1.083   1_455  S
C516        C522   1.417       .  A
C516        C517   1.413       .  A
C517        C519   1.397       .  A
C517        C518   1.400       .  A
C518        H525   1.085       .  S
C519        C520   1.391       .  A
C519        H526   1.084       .  S
C520        C521   1.408       .  A
C520        H527   1.083       .  S
C521        C522   1.414       .  A
C522        H528   1.084   1_455  S
C529        C530   1.408   1_655  A
C529        C534   1.408       .  A
C530        C531   1.410       .  A
C530        H539   1.083       .  S
C531        C532   1.408   1_455  A
C531        H540   1.083       .  S
C532        C538   1.421       .  A
C532        C533   1.415       .  A
C533        C535   1.399       .  A
C533        C534   1.409       .  A
C534        H541   1.084       .  S
C535        C536   1.395       .  A
C535        H542   1.084       .  S
C536        C537   1.408       .  A
C536        H543   1.084       .  S
C537        C538   1.414       .  A
C538        H544   1.084       .  S
C545        C546   1.408   1_655  A
C545        C550   1.404       .  A
C546        C547   1.408   1_455  A
C546        H555   1.083       .  S
C547        C548   1.407       .  A
C547        H556   1.083   1_655  S
C548        C554   1.420       .  A
C548        C549   1.415       .  A
C549        C551   1.397       .  A
C549        C550   1.406       .  A
C550        H557   1.085       .  S
C551        C552   1.393       .  A
C551        H558   1.084       .  S
C552        C553   1.409       .  A
C552        H559   1.084       .  S
C553        C554   1.412       .  A
C554        H560   1.084       .  S
C561        C562   1.407       .  A
C561        C566   1.412       .  A
C562        C563   1.390       .  A
C562        H571   1.083       .  S
C563        C564   1.395       .  A
C563        H572   1.084       .  S
C564        C570   1.403       .  A
C564        C565   1.415       .  A
C565        C567   1.407       .  A
C565        C566   1.420       .  A
C566        H573   1.084       .  S
C567        C568   1.408       .  A
C567        H574   1.083       .  S
C568        C569   1.409       .  A
C568        H575   1.083       .  S
C569        C570   1.404       .  A
C570        H576   1.085       .  S
C577        C578   1.405       .  A
C577        C582   1.404       .  A
C578        C579   1.399       .  A
C578        H587   1.083       .  S
C579        C580   1.403       .  A
C579        H588   1.083       .  S
C580        C586   1.407       .  A
C580        C581   1.415       .  A
C581        C583   1.401       .  A
C581        C582   1.404       .  A
C582        H589   1.084       .  S
C583        C584   1.396       .  A
C583        H590   1.084       .  S
C584        C585   1.404       .  A
C584        H591   1.083       .  S
C585        C586   1.405       .  A
C586        H592   1.084       .  S
C593        C594   1.405       .  A
C593        C598   1.408       .  A
C594        C595   1.403   1_545  A
C594        H603   1.083       .  S
C595        C596   1.406   1_565  A
C595        H604   1.083       .  S
C596        C602   1.408       .  A
C596        C597   1.412       .  A
C597        C599   1.401       .  A
C597        C598   1.400       .  A
C598        H605   1.084       .  S
C599        C600   1.395       .  A
C599        H606   1.084       .  S
C600        C601   1.406       .  A
C600        H607   1.083       .  S
C601        C602   1.412       .  A
C602        H608   1.084   1_545  S
C609        C610   1.405       .  A
C609        C614   1.409       .  A
C610        C611   1.403       .  A
C610        H619   1.083       .  S
C611        C612   1.405       .  A
C611        H620   1.083       .  S
C612        C618   1.411       .  A
C612        C613   1.413       .  A
C613        C615   1.401       .  A
C613        C614   1.407       .  A
C614        H621   1.084       .  S
C615        C616   1.398       .  A
C615        H622   1.084       .  S
C616        C617   1.408       .  A
C616        H623   1.083       .  S
C617        C618   1.412       .  A
C618        H624   1.084       .  S
C625        C626   1.410       .  A
C625        C630   1.408       .  A
C626        C627   1.403       .  A
C626        H635   1.083       .  S
C627        C628   1.403       .  A
C627        H636   1.083       .  S
C628        C634   1.414       .  A
C628        C629   1.414       .  A
C629        C631   1.399       .  A
C629        C630   1.407       .  A
C630        H637   1.084       .  S
C631        C632   1.395       .  A
C631        H638   1.084       .  S
C632        C633   1.409       .  A
C632        H639   1.083       .  S
C633        C634   1.410       .  A
C634        H640   1.084       .  S
C641        C642   1.405       .  A
C641        C646   1.406       .  A
C642        C643   1.397       .  A
C642        H651   1.083       .  S
C643        C644   1.402       .  A
C643        H652   1.084       .  S
C644        C650   1.403       .  A
C644        C645   1.413       .  A
C645        C647   1.403       .  A
C645        C646   1.404       .  A
C646        H653   1.084       .  S
C647        C648   1.399       .  A
C647        H654   1.084       .  S
C648        C649   1.405       .  A
C648        H655   1.083       .  S
C649        C650   1.407       .  A
C650        H656   1.084       .  S
C657        C658   1.409       .  A
C657        C662   1.412       .  A
C658        C659   1.395       .  A
C658        H667   1.083       .  S
C659        C660   1.400       .  A
C659        H668   1.084       .  S
C660        C666   1.403       .  A
C660        C661   1.413       .  A
C661        C663   1.405       .  A
C661        C662   1.410       .  A
C662        H669   1.084       .  S
C663        C664   1.403       .  A
C663        H670   1.083       .  S
C664        C665   1.406       .  A
C664        H671   1.083       .  S
C665        C666   1.407       .  A
C666        H672   1.084       .  S
C673        C674   1.407       .  A
C673        C678   1.409       .  A
C674        C675   1.389       .  A
C674        H683   1.083       .  S
C675        C676   1.396       .  A
C675        H684   1.084       .  S
C676        C682   1.398       .  A
C676        C677   1.414       .  A
C677        C679   1.405       .  A
C677        C678   1.413       .  A
C678        H685   1.084       .  S
C679        C680   1.404       .  A
C679        H686   1.083       .  S
C680        C681   1.409       .  A
C680        H687   1.083       .  S
C681        C682   1.403       .  A
C682        H688   1.084       .  S
C689        C690   1.405       .  A
C689        C694   1.412       .  A
C690        C691   1.393       .  A
C690        H699   1.084       .  S
C691        C692   1.399       .  A
C691        H700   1.084       .  S
C692        C698   1.402       .  A
C692        C693   1.414       .  A
C693        C695   1.409       .  A
C693        C694   1.418       .  A
C694        H701   1.084       .  S
C695        C696   1.410       .  A
C695        H702   1.083       .  S
C696        C697   1.405       .  A
C696        H703   1.083       .  S
C697        C698   1.406       .  A
C698        H704   1.085       .  S
C705        C706   1.407       .  A
C705        C710   1.404       .  A
C706        C707   1.407       .  A
C706        H715   1.083       .  S
C707        C708   1.407       .  A
C707        H716   1.083       .  S
C708        C714   1.416       .  A
C708        C709   1.415       .  A
C709        C711   1.399       .  A
C709        C710   1.404       .  A
C710        H717   1.085       .  S
C711        C712   1.394       .  A
C711        H718   1.084       .  S
C712        C713   1.406       .  A
C712        H719   1.083       .  S
C713        C714   1.412       .  A
C714        H720   1.084       .  S
C721        C722   1.410       .  A
C721        C726   1.406   1_565  A
C722        C723   1.401       .  A
C722        H731   1.083       .  S
C723        C724   1.403   1_565  A
C723        H732   1.084       .  S
C724        C730   1.412       .  A
C724        C725   1.415       .  A
C725        C727   1.399       .  A
C725        C726   1.404       .  A
C726        H733   1.084       .  S
C727        C728   1.394       .  A
C727        H734   1.084       .  S
C728        C729   1.406       .  A
C728        H735   1.083       .  S
C729        C730   1.408       .  A
C730        H736   1.084       .  S
C737        C738   1.412       .  A
C737        C742   1.408       .  A
C738        C739   1.392       .  A
C738        H747   1.083       .  S
C739        C740   1.396       .  A
C739        H748   1.084       .  S
C740        C746   1.403       .  A
C740        C741   1.416       .  A
C741        C743   1.403       .  A
C741        C742   1.412       .  A
C742        H749   1.084       .  S
C743        C744   1.401       .  A
C743        H750   1.083       .  S
C744        C745   1.407       .  A
C744        H751   1.083       .  S
C745        C746   1.402       .  A
C746        H752   1.085       .  S
C753        C754   1.404       .  A
C753        C758   1.410       .  A
C754        C755   1.393       .  A
C754        H763   1.083       .  S
C755        C756   1.400       .  A
C755        H764   1.084       .  S
C756        C762   1.397       .  A
C756        C757   1.412       .  A
C757        C759   1.406       .  A
C757        C758   1.408       .  A
C758        H765   1.084       .  S
C759        C760   1.404       .  A
C759        H766   1.083       .  S
C760        C761   1.406       .  A
C760        H767   1.083   1_565  S
C761        C762   1.409       .  A
C762        H768   1.084       .  S
C769        C770   1.407       .  A
C769        C774   1.403       .  A
C770        C771   1.399       .  A
C770        H779   1.083       .  S
C771        C772   1.402       .  A
C771        H780   1.084       .  S
C772        C778   1.405       .  A
C772        C773   1.414       .  A
C773        C775   1.397       .  A
C773        C774   1.399       .  A
C774        H781   1.084       .  S
C775        C776   1.391       .  A
C775        H782   1.084       .  S
C776        C777   1.409       .  A
C776        H783   1.083       .  S
C777        C778   1.406       .  A
C778        H784   1.084       .  S
C785        C786   1.407       .  A
C785        C790   1.400       .  A
C786        C787   1.403       .  A
C786        H795   1.083       .  S
C787        C788   1.405       .  A
C787        H796   1.083       .  S
C788        C794   1.411       .  A
C788        C789   1.415       .  A
C789        C791   1.396       .  A
C789        C790   1.398       .  A
C790        H797   1.085       .  S
C791        C792   1.389       .  A
C791        H798   1.084       .  S
C792        C793   1.408       .  A
C792        H799   1.083       .  S
C793        C794   1.408       .  A
C794        H800   1.084       .  S
C801        C802   1.406       .  A
C801        C806   1.406       .  A
C802        C803   1.401       .  A
C802        H811   1.083       .  S
C803        C804   1.404       .  A
C803        H812   1.083       .  S
C804        C810   1.409       .  A
C804        C805   1.415       .  A
C805        C807   1.401       .  A
C805        C806   1.405       .  A
C806        H813   1.084       .  S
C807        C808   1.397       .  A
C807        H814   1.084       .  S
C808        C809   1.405       .  A
C808        H815   1.083       .  S
C809        C810   1.407       .  A
C810        H816   1.084       .  S
