geometry optimzed in LAMMPS
_audit_creation_date              2020-12-01 
_audit_creation_method            'lammps2cif' 
_symmetry_space_group_name_H-M    'P1' 
_symmetry_Int_Tables_number       1 
_symmetry_cell_setting            triclinic 
loop_ 
_symmetry_equiv_pos_as_xyz 
  x,y,z 
_cell_length_a                    18.57606109 
_cell_length_b                    20.192041528400953 
_cell_length_c                    20.4278137766255 
_cell_angle_alpha                 93.91577847701025 
_cell_angle_beta                  94.01723603526898 
_cell_angle_gamma                 88.3963451466129 
loop_ 
_atom_site_label 
_atom_site_type_symbol 
_atom_site_fract_x 
_atom_site_fract_y 
_atom_site_fract_z 
_atom_site_charge 
C1          C  0.13530352  0.16234553  0.22244611     0.86900
C2          C  0.20066700  0.12339235  0.25291037    -0.53400
C3          C  0.25416595  0.15897539  0.28329139     0.09800
C4          C  0.23629719  0.23819528  0.27763762     0.20700
C5          C  0.10777450  0.21433765  0.27376333    -0.54100
C6          C  0.15516898  0.25685527  0.30299713     0.09900
C7          C  0.17192629  0.20516625  0.17262873    -0.53600
C8          C  0.22764867  0.24496907  0.20045712     0.10500
H9          H  0.20410780  0.06947169  0.24966564     0.15000
H10         H  0.27904840  0.27031738  0.30217325     0.00700
H11         H  0.05064612  0.22094955  0.28162048     0.15300
H12         H  0.15868656  0.20307724  0.12028115     0.15100
C13         C  0.12340499  0.32466068  0.33909624     0.30400
C14         C  0.12098858  0.45317546  0.40109088     0.30400
C15         C  0.15950871  0.37792764  0.30721527    -0.05800
C16         C  0.04212627  0.35900674  0.34550427    -0.06600
C17         C  0.15057885  0.33151060  0.41122858    -0.06500
C18         C  0.15955343  0.44121247  0.33756969    -0.05800
C19         C  0.04149823  0.42487328  0.37786292    -0.06600
C20         C  0.14901601  0.39547159  0.44287537    -0.06500
C21         C  0.16466464  0.48328901  0.28803259    -0.31900
N22         N  0.16986194  0.44770636  0.23016293     0.14600
C23         C  0.16082487  0.38423957  0.24091937    -0.31900
H24         H  0.14399603  0.34729668  0.20290054     0.16600
C25         C  0.96705815  0.44196274  0.38660567    -0.30800
N26         N  0.92096439  0.39257147  0.36013754     0.13400
C27         C  0.96690229  0.34254845  0.33532471    -0.30800
C28         C  0.13688873  0.38506059  0.50778470    -0.31100
N29         N  0.13945639  0.31945139  0.51889670     0.13900
H30         H  0.12513995  0.42369235  0.54490317     0.16500
C31         C  0.13961215  0.28779457  0.45864906    -0.31100
H32         H  0.12850893  0.23556536  0.44967364     0.16500
H33         H  0.94770809  0.29547092  0.31342938     0.16500
H34         H  0.15299023  0.53517092  0.29339676     0.16600
H35         H  0.94855924  0.48747860  0.41181490     0.16500
C36         C  0.16086293  0.62376651  0.51354752     0.86900
C37         C  0.19240897  0.66144106  0.45869667    -0.53400
C38         C  0.23327698  0.62559025  0.41721554     0.09800
C39         C  0.23248706  0.54654672  0.43307406     0.20700
C40         C  0.11367049  0.56734793  0.47491405    -0.54100
C41         C  0.15005385  0.52424788  0.43299983     0.09900
C42         C  0.22350083  0.58450163  0.54663501    -0.53600
C43         C  0.26005065  0.54243578  0.50784062     0.10500
H44         H  0.18741230  0.71452709  0.45479464     0.15000
H45         H  0.26550865  0.51388222  0.40046698     0.00700
H46         H  0.05794224  0.55837832  0.48093592     0.15300
H47         H  0.23584960  0.58647955  0.59961948     0.15100
C48         C  0.44984330  0.09515998  0.39515114     0.30400
C49         C  0.32298244  0.12156796  0.31771964     0.30400
C50         C  0.45727401  0.12987247  0.32946945    -0.05800
C51         C  0.40659643  0.02995768  0.37044634    -0.06600
C52         C  0.38681209  0.13171776  0.42678261    -0.06500
C53         C  0.39483759  0.14276233  0.29149441    -0.05800
C54         C  0.34026787  0.04143281  0.33137198    -0.06600
C55         C  0.32816948  0.15070737  0.38795903    -0.06500
C56         C  0.41585239  0.17419585  0.23710840    -0.31900
N57         N  0.48779043  0.18936727  0.24371817     0.14600
C58         C  0.51363178  0.15518755  0.29666482    -0.31900
H59         H  0.57016781  0.14793523  0.31073892     0.16600
C60         C  0.30813295  0.97593566  0.32534604    -0.30800
N61         N  0.35026642  0.92789683  0.35805205     0.13400
C62         C  0.41014654  0.96193822  0.38428400    -0.30800
C63         C  0.28076301  0.18281241  0.42879164    -0.31100
N64         N  0.30835227  0.18093461  0.49171882     0.13900
H65         H  0.22868246  0.20163987  0.41324701     0.16500
C66         C  0.37022465  0.14461497  0.49101765    -0.31100
H67         H  0.40193109  0.12876524  0.53370056     0.16500
H68         H  0.45417615  0.93910135  0.41282172     0.16500
H69         H  0.38121791  0.17891465  0.19320733     0.16600
H70         H  0.25702358  0.96499600  0.29868708     0.16500
C71         C  0.62170267  0.25205024  0.12333851     0.86900
C72         C  0.65657518  0.30305851  0.17507085    -0.53400
C73         C  0.61104876  0.33561783  0.21604415     0.09800
C74         C  0.52806289  0.30972551  0.19788453     0.20700
C75         C  0.58176842  0.20272071  0.16335452    -0.54100
C76         C  0.53041013  0.23061615  0.20203116     0.09900
C77         C  0.55968763  0.28915194  0.08539715    -0.53600
C78         C  0.50881061  0.31859996  0.12115968     0.10500
H79         H  0.71441905  0.31001057  0.18068582     0.15000
H80         H  0.48838434  0.33501537  0.22975748     0.00700
H81         H  0.59047447  0.14965455  0.16055104     0.15300
H82         H  0.55521533  0.29073061  0.03262801     0.15100
C83         C  0.22468454  0.21447559  0.65501741     0.86900
C84         C  0.16218465  0.25482563  0.61921106    -0.53400
C85         C  0.18532448  0.29297516  0.57158277     0.09800
C86         C  0.26656859  0.28557709  0.56361052     0.20700
C87         C  0.25639304  0.17371242  0.59673529    -0.54100
C88         C  0.27828436  0.21064436  0.54969833     0.09900
C89         C  0.28278493  0.26464755  0.67912766    -0.53600
C90         C  0.30321218  0.30404757  0.63289977     0.10500
H91         H  0.10549662  0.24652222  0.62319809     0.15000
H92         H  0.28533571  0.31357665  0.52339703     0.00700
H93         H  0.25826726  0.11987175  0.59068823     0.15300
H94         H  0.30909826  0.26399928  0.72785045     0.15100
C95         C  0.64242842  0.44164046  0.41132679     0.30400
C96         C  0.64147841  0.37744113  0.28317661     0.30400
C97         C  0.62513759  0.48465262  0.35218235    -0.05800
C98         C  0.72069037  0.40992207  0.38975453    -0.06600
C99         C  0.59212230  0.38434087  0.39344138    -0.06500
C100        C  0.62387745  0.45239139  0.28844020    -0.05800
C101        C  0.71936451  0.37650327  0.32473681    -0.06600
C102        C  0.59488035  0.35232115  0.33180649    -0.06500
C103        C  0.63463276  0.50106087  0.24636186    -0.31900
N104        N  0.63334276  0.56170429  0.27890091     0.14600
C105        C  0.63698137  0.55071220  0.34385758    -0.31900
H106        H  0.64392567  0.58932088  0.38314453     0.16600
C107        C  0.79336880  0.36719224  0.30959092    -0.30800
N108        N  0.84106086  0.39222798  0.35983698     0.13400
C109        C  0.79655357  0.42025793  0.40711896    -0.30800
C110        C  0.58370205  0.28745886  0.33850814    -0.31100
N111        N  0.56311700  0.27946648  0.39817235     0.13900
H112        H  0.60808951  0.24858831  0.30822813     0.16500
C113        C  0.57118821  0.33767463  0.43295812    -0.31100
H114        H  0.57775962  0.34258917  0.48505450     0.16500
H115        H  0.81697850  0.44858528  0.45102699     0.16500
H116        H  0.64246492  0.49345527  0.19451769     0.16600
H117        H  0.81057522  0.34694794  0.26269739     0.16500
C118        C  0.54877157  0.69526341  0.17268674     0.86900
C119        C  0.49195756  0.71816719  0.22143708    -0.53400
C120        C  0.46863762  0.66940974  0.25673563     0.09800
C121        C  0.50528295  0.60080140  0.23974827     0.20700
C122        C  0.60945710  0.66366335  0.21885757    -0.54100
C123        C  0.58628721  0.61242188  0.25172221     0.09900
C124        C  0.51522867  0.63617848  0.13085027    -0.53600
C125        C  0.49374588  0.58750908  0.16588392     0.10500
H126        H  0.47068567  0.76805603  0.22558303     0.15000
H127        H  0.48614756  0.55838298  0.26490460     0.00700
H128        H  0.66516109  0.67697003  0.22536266     0.15300
H129        H  0.50936109  0.63281872  0.07738171     0.15100
C130        C  0.64467709  0.13857888  0.48292521     0.86900
C131        C  0.58472864  0.08668670  0.45598752    -0.53400
C132        C  0.51574775  0.11598575  0.44558944     0.09800
C133        C  0.51705177  0.19262909  0.46797912     0.20700
C134        C  0.63584634  0.18644731  0.42962857    -0.54100
C135        C  0.57215354  0.21876397  0.42729077     0.09900
C136        C  0.61594714  0.17370508  0.54624312    -0.53600
C137        C  0.54976760  0.20236162  0.53812082     0.10500
H138        H  0.59760670  0.03633055  0.43782749     0.15000
H139        H  0.46693287  0.22307130  0.46082705     0.00700
H140        H  0.67587444  0.19358413  0.39517611     0.15300
H141        H  0.64899659  0.18197585  0.59170882     0.15100
C142        C  0.28839014  0.66308891  0.37434094     0.30400
C143        C  0.40549925  0.67686349  0.30044792     0.30400
C144        C  0.27800740  0.64267864  0.29936175    -0.05800
C145        C  0.31538637  0.74130075  0.36994110    -0.06600
C146        C  0.36006098  0.62785413  0.39470852    -0.06500
C147        C  0.33748428  0.65013040  0.26350589    -0.05800
C148        C  0.37717763  0.74493543  0.33273465    -0.06600
C149        C  0.41624697  0.63179296  0.35707328    -0.06500
C150        C  0.31718174  0.63892673  0.19792922    -0.31900
N151        N  0.24686192  0.62291936  0.19041947     0.14600
C152        C  0.22148437  0.63011562  0.25187295    -0.31900
H153        H  0.16500050  0.62909195  0.26078567     0.16600
C154        C  0.39394110  0.81218450  0.32766389    -0.30800
N155        N  0.34419695  0.85464758  0.35466233     0.13400
C156        C  0.29612331  0.81222694  0.38095297    -0.30800
C157        C  0.47210569  0.59448819  0.38516629    -0.31100
N158        N  0.45230430  0.56564685  0.43913520     0.13900
H159        H  0.52569525  0.59919833  0.37384652     0.16500
C160        C  0.38663571  0.59493738  0.44846056    -0.31100
H161        H  0.36583492  0.60774602  0.49505155     0.16500
H162        H  0.24941677  0.83046409  0.40604247     0.16500
H163        H  0.35130720  0.64431171  0.15836238     0.16600
H164        H  0.44009220  0.83004007  0.30573515     0.16500
C165        C  0.12736683  0.51859031  0.06513776     0.86900
C166        C  0.11434412  0.47987801  0.12546636    -0.53400
C167        C  0.17300638  0.47244697  0.16674782     0.09800
C168        C  0.24071594  0.50096056  0.14439720     0.20700
C169        C  0.16264345  0.58445821  0.09556422    -0.54100
C170        C  0.22027795  0.57422199  0.13955469     0.09900
C171        C  0.19073095  0.48082114  0.03121032    -0.53600
C172        C  0.25009821  0.47082607  0.07185578     0.10500
H173        H  0.06178559  0.46300278  0.13671978     0.15000
H174        H  0.28647295  0.49301373  0.18117445     0.00700
H175        H  0.14436765  0.63419765  0.08708334     0.15300
H176        H  0.18887284  0.46114505  0.98056979     0.15100
C177        C  0.60823458  0.57057471  0.56560239     0.86900
C178        C  0.65207856  0.52447606  0.51647320    -0.53400
C179        C  0.61552507  0.47428687  0.48200414     0.09800
C180        C  0.53389365  0.47438244  0.50794375     0.20700
C181        C  0.54401284  0.59288834  0.52238114    -0.54100
C182        C  0.50447635  0.54552913  0.49131115     0.09900
C183        C  0.57793607  0.52559086  0.61589488    -0.53600
C184        C  0.53620634  0.47460042  0.58957742     0.10500
H185        H  0.70547845  0.53693925  0.50339987     0.15000
H186        H  0.49791418  0.43635124  0.48301363     0.00700
H187        H  0.53440860  0.64144467  0.50633259     0.15300
H188        H  0.58429881  0.53701992  0.66856786     0.15100
C189        C  0.44016193  0.35373876  0.08664674     0.30400
C190        C  0.31567054  0.42515069  0.05601048     0.30400
C191        C  0.43581770  0.42263725  0.11787127    -0.05800
C192        C  0.42489764  0.36976927  0.00660993    -0.06600
C193        C  0.36768461  0.32459361  0.10674251    -0.06500
C194        C  0.37615894  0.45934459  0.09865696    -0.05800
C195        C  0.35944140  0.40649794  0.99293985    -0.06600
C196        C  0.30532098  0.35690870  0.08501477    -0.06500
C197        C  0.39583164  0.52468100  0.10509884    -0.31900
N198        N  0.46186765  0.52840490  0.13633516     0.14600
C199        C  0.48800147  0.46599643  0.14189987    -0.31900
H200        H  0.54236510  0.45228380  0.15668567     0.16600
C201        C  0.35738067  0.42451349  0.92639615    -0.30800
N202        N  0.41843628  0.40340512  0.89502166     0.13400
C203        C  0.45913711  0.36973355  0.94378727    -0.30800
C204        C  0.24731264  0.32863916  0.11347171    -0.31100
N205        N  0.27185261  0.28666611  0.16037165     0.13900
H206        H  0.19109952  0.34195404  0.10323234     0.16500
C207        C  0.34555713  0.29155954  0.16057256    -0.31100
H208        H  0.38088857  0.28325276  0.20275315     0.16500
H209        H  0.51096860  0.34653660  0.93522910     0.16500
H210        H  0.36503780  0.56565305  0.08529276     0.16600
H211        H  0.31345968  0.45246322  0.90290306     0.16500
C212        C  0.48189170  0.43426877  0.63339542     0.30400
C213        C  0.36524549  0.35267336  0.64315495     0.30400
C214        C  0.49099345  0.35981954  0.61152125    -0.05800
C215        C  0.45733963  0.42425610  0.71142296    -0.06600
C216        C  0.40765101  0.45399216  0.60007768    -0.06500
C217        C  0.43235344  0.32038356  0.61585114    -0.05800
C218        C  0.39564672  0.38318750  0.71195726    -0.06600
C219        C  0.35153759  0.41274415  0.60249192    -0.06500
C220        C  0.45246227  0.25594694  0.59941178    -0.31900
N221        N  0.52179501  0.25344956  0.58345620     0.14600
C222        C  0.54722294  0.31631369  0.59491649    -0.31900
H223        H  0.60214234  0.33012632  0.58927695     0.16600
C224        C  0.37780234  0.37507370  0.77702237    -0.30800
N225        N  0.42620518  0.40358206  0.82273864     0.13400
C226        C  0.47441019  0.43444190  0.78372281    -0.30800
C227        C  0.29341749  0.44003454  0.56699900    -0.31100
N228        N  0.31191219  0.49532189  0.53850061     0.13900
H229        H  0.23987107  0.42537798  0.57087783     0.16500
C230        C  0.37970843  0.50761929  0.56675193    -0.31100
H231        H  0.40553925  0.55471702  0.57167346     0.16500
H232        H  0.51993926  0.46255545  0.80515093     0.16500
H233        H  0.41905883  0.21372342  0.60080639     0.16600
H234        H  0.33120111  0.35008594  0.79080987     0.16500
N235        N  0.77645096  0.89626358  0.98188528    -0.05700
N236        N  0.75450453  0.92519921  0.03721360    -0.57900
N237        N  0.95359273  0.86239115  0.96584845    -0.05400
N238        N  0.02516372  0.86018379  0.96916427    -0.60000
N239        N  0.93064725  0.92428881  0.96122880    -0.05000
N240        N  0.98536066  0.96440743  0.96494397    -0.57800
N241        N  0.79360126  0.83371315  0.99106796    -0.04700
N242        N  0.78070402  0.82023307  0.05107654    -0.60300
C243        C  0.76101732  0.87802153  0.08163898     0.96400
C244        C  0.04450621  0.92451849  0.96794619     0.96200
N245        N  0.95544501  0.70136335  0.82852667    -0.05900
N246        N  0.01092344  0.66297410  0.81237270    -0.58400
N247        N  0.80438509  0.69642204  0.90609037    -0.04100
N248        N  0.76866838  0.65583269  0.93937599    -0.59700
N249        N  0.79654498  0.67815776  0.84324273    -0.06000
N250        N  0.75496867  0.62615345  0.83284642    -0.58700
N251        N  0.96424172  0.72213882  0.89075025    -0.03700
N252        N  0.02632691  0.69976468  0.91724953    -0.59800
Mn253      Mn  0.87904453  0.77816063  0.94056832     1.18400
C254        C  0.05554090  0.66228827  0.86806051     0.98500
C255        C  0.73745664  0.61177376  0.89332302     0.99200
N256        N  0.88902064  0.99656803  0.83351762    -0.06000
N257        N  0.93668984  0.04479072  0.83966710    -0.62300
N258        N  0.72375117  0.95176460  0.78436476    -0.04800
N259        N  0.66986225  0.98261532  0.75261406    -0.63000
N260        N  0.72873421  0.97166391  0.84699814    -0.05500
N261        N  0.67830590  0.01756877  0.85830617    -0.62600
N262        N  0.88501091  0.97035947  0.77295074    -0.04400
N263        N  0.93138169  0.99732045  0.73798387    -0.63200
Mn264      Mn  0.82910945  0.94870181  0.90767685     1.10700
C265        C  0.96314827  0.04453580  0.77906853     0.99700
C266        C  0.64063937  0.02299923  0.79928317     0.99800
N267        N  0.74767060  0.75398302  0.72475837    -0.05500
N268        N  0.68848449  0.72573681  0.74069787    -0.60900
N269        N  0.89435919  0.84119813  0.69032045    -0.04800
N270        N  0.92541363  0.86198632  0.64002882    -0.57600
N271        N  0.91084578  0.77886473  0.69828662    -0.06100
N272        N  0.95263421  0.75618936  0.65141535    -0.60400
N273        N  0.73228489  0.81572512  0.71098743    -0.05100
N274        N  0.66301881  0.82857944  0.71671347    -0.57600
Mn275      Mn  0.85382384  0.72623946  0.77090170     1.20200
Mn276      Mn  0.80891828  0.89456285  0.73788372     1.10100
Cl277      Cl  0.84161758  0.83650496  0.83981301    -0.85600
C278        C  0.63578507  0.77323549  0.73792914     0.96700
C279        C  0.95843429  0.80789701  0.61277874     0.96500
C280        C  0.70576090  0.72534543  0.55784315    -0.11500
C281        C  0.77289021  0.69124154  0.55624483     0.11100
C282        C  0.78137705  0.63452914  0.59590443    -0.03300
C283        C  0.72012466  0.60901069  0.62057471    -0.06000
C284        C  0.65232055  0.62893976  0.59596494    -0.16800
C285        C  0.64429864  0.69548857  0.57640488     0.02100
C286        C  0.83154336  0.72214366  0.52079331     0.12000
C287        C  0.85113573  0.59738933  0.61204824     0.62700
H288        H  0.72395751  0.56268266  0.64455950     0.12100
C289        C  0.57480284  0.73795134  0.57472933     0.54800
H290        H  0.69961862  0.77567674  0.54404091     0.07900
C291        C  0.82562576  0.78823438  0.49941228    -0.05900
C292        C  0.88735532  0.82754941  0.51153679    -0.06700
C293        C  0.95024471  0.79745623  0.53979087    -0.16300
C294        C  0.96024104  0.73264162  0.51212625    -0.01800
C295        C  0.89966432  0.69169960  0.51211660    -0.09400
C296        C  0.76783892  0.80947441  0.44838018     0.64900
H297        H  0.88624334  0.87940738  0.50119529     0.10300
C298        C  0.00336894  0.72705849  0.45234291     0.63300
H299        H  0.90222683  0.64103449  0.49210997     0.07700
F300        F  0.58624802  0.79885751  0.60774343    -0.19800
F301        F  0.51983058  0.70827800  0.60353939    -0.16000
F302        F  0.55312983  0.75077692  0.51041205    -0.19500
F303        F  0.84576792  0.55385726  0.66082094    -0.22900
F304        F  0.90220255  0.64176096  0.63574270    -0.24400
F305        F  0.87152824  0.56013340  0.55700578    -0.18300
F306        F  0.01575235  0.66177469  0.43145213    -0.20800
F307        F  0.06821140  0.75835612  0.46674735    -0.22000
F308        F  0.96607263  0.75812597  0.40152731    -0.19200
F309        F  0.72296199  0.75766542  0.42683621    -0.19300
F310        F  0.80028116  0.82935264  0.39422272    -0.23100
F311        F  0.72696197  0.86213490  0.47361501    -0.24700
C312        C  0.92467528  0.54020495  0.01802352    -0.11500
C313        C  0.91035661  0.47666526  0.98879789     0.11100
C314        C  0.96861284  0.43343625  0.97420076    -0.03300
C315        C  0.03887039  0.45588314  0.98936055    -0.06000
C316        C  0.05450502  0.51775733  0.02443178    -0.16800
C317        C  0.99432628  0.56053826  0.03990401     0.02100
C318        C  0.83436713  0.46433469  0.96503978     0.12000
C319        C  0.96029090  0.36287753  0.94418044     0.62700
H320        H  0.08168312  0.42003380  0.97979371     0.12100
C321        C  0.99987427  0.62679933  0.08015209     0.54800
H322        H  0.87947271  0.57443759  0.02416792     0.07900
C323        C  0.77806664  0.48848128  0.00431922    -0.05900
C324        C  0.72501844  0.53044723  0.97556210    -0.06700
C325        C  0.72664930  0.54202743  0.90868625    -0.16300
C326        C  0.76002276  0.49217455  0.86854840    -0.01800
C327        C  0.81978057  0.45848082  0.89670412    -0.09400
C328        C  0.77984553  0.47882459  0.07712210     0.64900
H329        H  0.69154241  0.56182599  0.00669480     0.10300
C330        C  0.74049511  0.48008777  0.79602674     0.63300
H331        H  0.85807038  0.43394964  0.86499515     0.07700
F332        F  0.03273495  0.61821684  0.14190625    -0.19800
F333        F  0.93287193  0.65598635  0.08994265    -0.16000
F334        F  0.03709097  0.67090697  0.04731500    -0.19500
F335        F  0.97954181  0.36039325  0.87991133    -0.22900
F336        F  0.89091278  0.34026458  0.94511740    -0.24400
F337        F  0.00544205  0.31998493  0.97889857    -0.18300
F338        F  0.79726715  0.49728336  0.76102693    -0.20800
F339        F  0.67935790  0.51612139  0.77650212    -0.22000
F340        F  0.72708287  0.41338837  0.78209652    -0.19200
F341        F  0.83250958  0.43243659  0.09526814    -0.19300
F342        F  0.71376903  0.45624608  0.09214969    -0.23100
F343        F  0.79341234  0.53832659  0.11286596    -0.24700
C344        C  0.89507385  0.15782322  0.68409514    -0.11500
C345        C  0.91464718  0.11814140  0.62841966     0.11100
C346        C  0.98575121  0.09037117  0.62957917    -0.03300
C347        C  0.02384488  0.08627089  0.69152198    -0.06000
C348        C  0.98829377  0.10347815  0.74923211    -0.16800
C349        C  0.93558034  0.15433184  0.74431669     0.02100
C350        C  0.86030886  0.11191256  0.57143814     0.12000
C351        C  0.02307678  0.06522677  0.56882347     0.62700
H352        H  0.07346464  0.05682602  0.69486848     0.12100
C353        C  0.91969664  0.20171815  0.80207017     0.54800
H354        H  0.84803397  0.19044865  0.68078804     0.07900
C355        C  0.81322166  0.05770897  0.55955329    -0.05900
C356        C  0.74835925  0.06506480  0.52035646    -0.06700
C357        C  0.72635141  0.12669161  0.49752019    -0.16300
C358        C  0.77737892  0.18111104  0.50767718    -0.01800
C359        C  0.84516786  0.16908842  0.53946015    -0.09400
C360        C  0.82696128  0.99518133  0.59451991     0.64900
H361        H  0.71018685  0.02519175  0.51503262     0.10300
C362        C  0.76340743  0.25418810  0.49171092     0.63300
H363        H  0.88472191  0.20775506  0.54728156     0.07700
F364        F  0.92789110  0.26601632  0.78499181    -0.19800
F365        F  0.96644313  0.19047713  0.85615798    -0.16000
F366        F  0.84974901  0.19501405  0.81898730    -0.19500
F367        F  0.04485416  0.99964523  0.57420328    -0.22900
F368        F  0.08343583  0.10276679  0.56401722    -0.24400
F369        F  0.97941887  0.06954636  0.51157125    -0.18300
F370        F  0.69869584  0.27846836  0.51346038    -0.20800
F371        F  0.76593022  0.26097866  0.42511400    -0.22000
F372        F  0.81508390  0.29618456  0.52233627    -0.19200
F373        F  0.78504408  0.94379649  0.56684649    -0.19300
F374        F  0.81055300  0.00701685  0.65897547    -0.23100
F375        F  0.89843697  0.97614899  0.59137573    -0.24700
C376        C  0.61447547  0.76327041  0.01860026    -0.11500
C377        C  0.54863243  0.78921856  0.99260842     0.11100
C378        C  0.49031306  0.79871600  0.03276731    -0.08200
C379        C  0.49994020  0.78061615  0.09767832    -0.06000
C380        C  0.56285911  0.74629870  0.12274706    -0.16800
C381        C  0.62188990  0.73869661  0.08156927     0.02100
C382        C  0.54116572  0.79267721  0.92063361     0.12000
C383        C  0.41492249  0.82208892  0.00903099     0.62700
H384        H  0.45198372  0.78471357  0.12465284     0.12100
C385        C  0.69134141  0.70213172  0.10183822     0.54800
H386        H  0.65811950  0.75624966  0.98612216     0.07900
C387        C  0.55666243  0.85043700  0.88992658    -0.05900
C388        C  0.57835667  0.84324544  0.82536541    -0.06700
C389        C  0.58442411  0.78034771  0.79107980    -0.16300
C390        C  0.55501511  0.72507132  0.81821421    -0.01800
C391        C  0.53467494  0.73216512  0.88316489    -0.09400
C392        C  0.55736255  0.91907835  0.92511108     0.64900
H393        H  0.59618772  0.88688058  0.80403241     0.10300
C394        C  0.54527175  0.65755705  0.78242473     0.63300
H395        H  0.51901718  0.68867299  0.90666270     0.07700
F396        F  0.67850331  0.63668030  0.11173487    -0.19800
F397        F  0.72244367  0.73477892  0.15777581    -0.16000
F398        F  0.74093020  0.70031184  0.05505104    -0.19500
F399        F  0.39366154  0.87589199  0.04940616    -0.22900
F400        F  0.36727668  0.77125621  0.01275666    -0.24400
F401        F  0.41016013  0.84091470  0.94509029    -0.18300
F402        F  0.58594194  0.61073932  0.81586023    -0.20800
F403        F  0.56489019  0.65567632  0.71851895    -0.22000
F404        F  0.47335107  0.64106541  0.78087667    -0.19200
F405        F  0.52644256  0.96468228  0.88346592    -0.19300
F406        F  0.62755809  0.93608940  0.94330691    -0.23100
F407        F  0.51927507  0.92315554  0.98087594    -0.24700
C408        C  0.13720918  0.97789414  0.82450890    -0.11500
C409        C  0.17296274  0.03282599  0.85505628     0.11100
C410        C  0.18149775  0.04081114  0.92434697    -0.03300
C411        C  0.14712785  0.99618616  0.96125950    -0.06000
C412        C  0.10424747  0.94515685  0.93058291    -0.16800
C413        C  0.10119231  0.93428158  0.86077386     0.02100
C414        C  0.19460150  0.08369351  0.81213352     0.12000
C415        C  0.22094122  0.09947861  0.95903699     0.62700
H416        H  0.14726504  0.00533330  0.01417252     0.12100
C417        C  0.05535326  0.88093293  0.82355204     0.54800
H418        H  0.13291667  0.97267649  0.77127254     0.07900
C419        C  0.25157749  0.07225331  0.77073796    -0.05900
C420        C  0.25865158  0.11608877  0.72156612    -0.06700
C421        C  0.21031748  0.17084462  0.71143290    -0.16300
C422        C  0.16255630  0.18851863  0.76182582    -0.01800
C423        C  0.15275151  0.14231392  0.80889361    -0.09400
C424        C  0.30290006  0.01245234  0.77535487     0.64900
H425        H  0.30372874  0.10729187  0.69120460     0.10300
C426        C  0.12366358  0.25553035  0.76951551     0.63300
H427        H  0.11072119  0.15106223  0.84282642     0.07700
F428        F  0.05924066  0.88088724  0.75610562    -0.19800
F429        F  0.98435731  0.89049875  0.83649853    -0.16000
F430        F  0.07763849  0.81943281  0.84252540    -0.19500
F431        F  0.24112218  0.08787217  0.02382360    -0.22900
F432        F  0.17634112  0.15542236  0.95810693    -0.24400
F433        F  0.28287976  0.11139806  0.92823556    -0.18300
F434        F  0.06255283  0.25679422  0.72720503    -0.20800
F435        F  0.16829340  0.30638265  0.75776472    -0.22000
F436        F  0.10247166  0.26791276  0.83296244    -0.19200
F437        F  0.27419447  0.95951873  0.73663804    -0.19300
F438        F  0.31438129  0.99447526  0.83947175    -0.23100
F439        F  0.36951965  0.02613192  0.75363319    -0.24700
C440        C  0.65656573  0.19103502  0.82195897    -0.11500
C441        C  0.60748535  0.19600450  0.87124080     0.11100
C442        C  0.54311422  0.15917804  0.86088921    -0.03300
C443        C  0.54325163  0.10314156  0.81655234    -0.06000
C444        C  0.60524799  0.08660902  0.78367253    -0.16800
C445        C  0.65163194  0.13840457  0.77369835     0.02100
C446        C  0.63882565  0.20845772  0.93924875     0.12000
C447        C  0.47923034  0.17090694  0.90251228     0.62700
H448        H  0.50155502  0.06683865  0.81723202     0.12100
C449        C  0.70749944  0.13010824  0.72390925     0.54800
H450        H  0.70400148  0.22149123  0.82636434     0.07900
C451        C  0.67094167  0.26842533  0.96548530    -0.05900
C452        C  0.69663459  0.27231127  0.03233466    -0.06700
C453        C  0.67477580  0.22441256  0.07369868    -0.16300
C454        C  0.66532661  0.16002118  0.04420472    -0.01800
C455        C  0.64383755  0.15313248  0.97761529    -0.09400
C456        C  0.67313818  0.33079992  0.92868286     0.64900
H457        H  0.71401790  0.32002724  0.05447576     0.10300
C458        C  0.68519766  0.09854871  0.07940968     0.63300
H459        H  0.63091918  0.10417174  0.95557369     0.07700
F460        F  0.77064438  0.10435418  0.75276725    -0.19800
F461        F  0.72025341  0.19113102  0.70064300    -0.16000
F462        F  0.68356317  0.08779337  0.67125161    -0.19500
F463        F  0.41866980  0.18547604  0.86229475    -0.22900
F464        F  0.48974633  0.22307673  0.94891689    -0.24400
F465        F  0.46713831  0.11451459  0.93460972    -0.18300
F466        F  0.62569008  0.05891606  0.08000023    -0.20800
F467        F  0.71180477  0.11489071  0.14282010    -0.22000
F468        F  0.73856612  0.06341901  0.04710484    -0.19200
F469        F  0.63392277  0.32676644  0.86863923    -0.19300
F470        F  0.74400365  0.34257262  0.91853837    -0.23100
F471        F  0.64534468  0.38408180  0.96599913    -0.24700
C472        C  0.21897943  0.61627024  0.78408429    -0.11500
C473        C  0.22567216  0.68314688  0.76979519     0.11100
C474        C  0.21675734  0.73096254  0.82266099    -0.03300
C475        C  0.17283124  0.71456988  0.87231352    -0.06000
C476        C  0.13463227  0.65537383  0.86381384    -0.16800
C477        C  0.16522460  0.60172956  0.82611728     0.02100
C478        C  0.19097044  0.69712863  0.70355771     0.12000
C479        C  0.24782683  0.79947766  0.82350592     0.62700
H480        H  0.15776926  0.75201205  0.90966216     0.12100
C481        C  0.13501956  0.53275742  0.82420950     0.54800
H482        H  0.23576969  0.57801545  0.74813836     0.07900
C483        C  0.22488291  0.72500875  0.65274567    -0.05900
C484        C  0.18775964  0.72300888  0.59003648    -0.06700
C485        C  0.13733990  0.67150930  0.57107711    -0.16300
C486        C  0.10118711  0.64749849  0.62363117    -0.01800
C487        C  0.12212360  0.67082600  0.68797557    -0.09400
C488        C  0.30193946  0.74903852  0.65897701     0.64900
H489        H  0.21349862  0.74814939  0.55345189     0.10300
C490        C  0.05291150  0.58811465  0.61579728     0.63300
H491        H  0.09356692  0.65431036  0.72711922     0.07700
F492        F  0.13350764  0.51367721  0.88750652    -0.19800
F493        F  0.17676326  0.48676243  0.78935084    -0.16000
F494        F  0.06558139  0.53210432  0.79522215    -0.19500
F495        F  0.32176634  0.79421830  0.81987073    -0.22900
F496        F  0.23459861  0.83700470  0.88085939    -0.24400
F497        F  0.21763616  0.83246070  0.77087094    -0.18300
F498        F  0.01878521  0.57831732  0.67234928    -0.20800
F499        F  0.09298537  0.53119044  0.60121373    -0.22000
F500        F  0.00076430  0.59762940  0.56658313    -0.19200
F501        F  0.33696613  0.72726045  0.60351819    -0.19300
F502        F  0.34151276  0.72489378  0.71229629    -0.23100
F503        F  0.30151374  0.81763566  0.66442843    -0.24700
C504        C  0.95744822  0.07087935  0.16498572    -0.11500
C505        C  0.95053578  0.03441028  0.22055880     0.11100
C506        C  0.00456197  0.03644162  0.27202136    -0.03300
C507        C  0.06169554  0.07828405  0.26756644    -0.06000
C508        C  0.07238020  0.11380092  0.21109538    -0.16800
C509        C  0.01798200  0.11028485  0.15860279     0.02100
C510        C  0.89565497  0.98319860  0.21489858     0.12000
C511        C  0.00297400  0.99483199  0.33162743     0.62700
H512        H  0.09886885  0.08474407  0.31054690     0.12100
C513        C  0.02225846  0.14652234  0.09657767     0.54800
H514        H  0.91584167  0.06572130  0.12518294     0.07900
C515        C  0.82119797  0.99796564  0.21707655    -0.05900
C516        C  0.77288079  0.95524626  0.18004143    -0.06700
C517        C  0.79834412  0.89708753  0.14636375    -0.16300
C518        C  0.87076147  0.87439968  0.16217805    -0.01800
C519        C  0.91903278  0.92057302  0.19154017    -0.09400
C520        C  0.79418761  0.05855457  0.25694458     0.64900
H521        H  0.71671760  0.97027175  0.17176415     0.10300
C522        C  0.90171945  0.80567054  0.14348629     0.63300
H523        H  0.97655145  0.90969865  0.19155354     0.07700
F524        F  0.08254937  0.12415786  0.06501211    -0.19800
F525        F  0.02534340  0.21416750  0.11200429    -0.16000
F526        F  0.96269814  0.13530209  0.05289472    -0.19500
F527        F  0.00241531  0.92795741  0.31232052    -0.22900
F528        F  0.94238449  0.01116747  0.36511577    -0.24400
F529        F  0.06274813  0.00495428  0.37528365    -0.18300
F530        F  0.96457212  0.79249999  0.18154093    -0.20800
F531        F  0.91834052  0.80042869  0.07852865    -0.22000
F532        F  0.85355997  0.75775019  0.15446557    -0.19200
F533        F  0.81893645  0.05533372  0.32194157    -0.19300
F534        F  0.71952606  0.06182776  0.25496464    -0.23100
F535        F  0.81897935  0.11589209  0.23379396    -0.24700
loop_ 
_geom_bond_atom_site_label_1 
_geom_bond_atom_site_label_2 
_geom_bond_distance 
_geom_bond_site_symmetry_2 
_ccdc_geom_bond_type 
C1            C2   1.545       .  S
C1            C7   1.580       .  S
C1            C5   1.535       .  S
C1          C508   1.541       .  S
C2            H9   1.087       .  S
C2            C3   1.335       .  D
C3            C4   1.635       .  S
C3           C49   1.610       .  S
C4            C8   1.588       .  S
C4            C6   1.653       .  S
C4           H10   1.110       .  S
C5           H11   1.088       .  S
C5            C6   1.329       .  D
C6           C13   1.626       .  S
C7           H12   1.079       .  S
C7            C8   1.394       .  D
C8          N205   1.510       .  S
C13          C15   1.493       .  S
C13          C17   1.522       .  S
C13          C16   1.654       .  S
C14          C41   1.625       .  S
C14          C18   1.527       .  S
C14          C20   1.548       .  S
C14          C19   1.626       .  S
C15          C23   1.371       .  A
C15          C18   1.382       .  A
C16          C27   1.443   1_455  A
C16          C19   1.444       .  A
C17          C31   1.383       .  A
C17          C20   1.405       .  A
C18          C21   1.375       .  A
C19          C25   1.436   1_455  A
C20          C28   1.391       .  A
C21          N22   1.349       .  A
C21          H34   1.064       .  S
N22         C167   1.425       .  S
N22          C23   1.332       .  A
C23          H24   1.076       .  S
C25          N26   1.389       .  A
C25          H35   1.082       .  S
N26          C27   1.396       .  A
N26         N108   1.484       .  S
C27          H33   1.081       .  S
C28          N29   1.358       .  A
C28          H30   1.079       .  S
N29          C85   1.447       .  S
N29          C31   1.348       .  A
C31          H32   1.081       .  S
C36          C37   1.553       .  S
C36          C42   1.533       .  S
C36          C40   1.589       .  S
C36         C485   1.548       .  S
C37          H44   1.081       .  S
C37          C38   1.339       .  D
C38          C39   1.651       .  S
C38         C142   1.627       .  S
C39          C43   1.583       .  S
C39          C41   1.608       .  S
C39          H45   1.109       .  S
C40          H46   1.073       .  S
C40          C41   1.376       .  D
C42          H47   1.089       .  S
C42          C43   1.327       .  D
C43         N228   1.473       .  S
C48         C132   1.591       .  S
C48          C50   1.572       .  S
C48          C52   1.525       .  S
C48          C51   1.595       .  S
C49          C53   1.554       .  S
C49          C55   1.511       .  S
C49          C54   1.679       .  S
C50          C58   1.408       .  A
C50          C53   1.378       .  A
C51          C62   1.420   1_545  A
C51          C54   1.442       .  A
C52          C66   1.375       .  A
C52          C55   1.364       .  A
C53          C56   1.400       .  A
C54          C60   1.460   1_545  A
C55          C63   1.374       .  A
C56          N57   1.375       .  A
C56          H69   1.075       .  S
N57          C76   1.508       .  S
N57          C58   1.374       .  A
C58          H59   1.078       .  S
C60          N61   1.404       .  A
C60          H70   1.081       .  S
N61          C62   1.381       .  A
N61         N155   1.483       .  S
C62          H68   1.082       .  S
C63          N64   1.353       .  A
C63          H65   1.065       .  S
N64          C88   1.432       .  S
N64          C66   1.346       .  A
C66          H67   1.079       .  S
C71          C72   1.546       .  S
C71          C77   1.548       .  S
C71          C75   1.565       .  S
C71         C453   1.531       .  S
C72          H79   1.085       .  S
C72          C73   1.357       .  D
C73          C74   1.651       .  S
C73          C96   1.635       .  S
C74          C78   1.604       .  S
C74          C76   1.605       .  S
C74          H80   1.108       .  S
C75          H81   1.077       .  S
C75          C76   1.366       .  D
C77          H82   1.078       .  S
C77          C78   1.337       .  D
C78         C189   1.587       .  S
C83          C84   1.567       .  S
C83          C89   1.534       .  S
C83          C87   1.542       .  S
C83         C421   1.540       .  S
C84          H91   1.080       .  S
C84          C85   1.380       .  D
C85          C86   1.531       .  S
C86          C90   1.553       .  S
C86          C88   1.533       .  S
C86          H92   1.109       .  S
C87          H93   1.086       .  S
C87          C88   1.347       .  D
C89          H94   1.078       .  S
C89          C90   1.356       .  D
C90         C213   1.529       .  S
C95         C179   1.650       .  S
C95          C97   1.546       .  S
C95          C99   1.517       .  S
C95          C98   1.648       .  S
C96         C100   1.537       .  S
C96         C102   1.486       .  S
C96         C101   1.626       .  S
C97         C105   1.382       .  A
C97         C100   1.415       .  A
C98         C109   1.446       .  A
C98         C101   1.447       .  A
C99         C113   1.364       .  A
C99         C102   1.379       .  A
C100        C103   1.377       .  A
C101        C107   1.435       .  A
C102        C110   1.349       .  A
C103        N104   1.353       .  A
C103        H116   1.079       .  S
N104        C123   1.442       .  S
N104        C105   1.357       .  A
C105        H106   1.084       .  S
C107        N108   1.386       .  A
C107        H117   1.081       .  S
N108        C109   1.396       .  A
C109        H115   1.082       .  S
C110        N111   1.324       .  A
C110        H112   1.076       .  S
N111        C135   1.399       .  S
N111        C113   1.338       .  A
C113        H114   1.061       .  S
C118        C119   1.542       .  S
C118        C124   1.539       .  S
C118        C122   1.569       .  S
C118        C380   1.539       .  S
C119        H126   1.072       .  S
C119        C120   1.357       .  D
C120        C121   1.555       .  S
C120        C143   1.521       .  S
C121        C125   1.516       .  S
C121        C123   1.530       .  S
C121        H127   1.108       .  S
C122        H128   1.073       .  S
C122        C123   1.366       .  D
C124        H129   1.088       .  S
C124        C125   1.340       .  D
C125        N198   1.425       .  S
C130        C131   1.594       .  S
C130        C136   1.553       .  S
C130        C134   1.502       .  S
C130        C357   1.541       .  S
C131        H138   1.084       .  S
C131        C132   1.405       .  D
C132        C133   1.584       .  S
C133        C137   1.519       .  S
C133        C135   1.492       .  S
C133        H139   1.108       .  S
C134        H140   1.078       .  S
C134        C135   1.335       .  D
C136        H141   1.083       .  S
C136        C137   1.348       .  D
C137        N221   1.449       .  S
C142        C144   1.559       .  S
C142        C146   1.537       .  S
C142        C145   1.680       .  S
C143        C147   1.519       .  S
C143        C149   1.519       .  S
C143        C148   1.577       .  S
C144        C152   1.395       .  A
C144        C147   1.385       .  A
C145        C156   1.473       .  A
C145        C148   1.427       .  A
C146        C160   1.377       .  A
C146        C149   1.346       .  A
C147        C150   1.371       .  A
C148        C154   1.414       .  A
C149        C157   1.380       .  A
C150        N151   1.350       .  A
C150        H163   1.075       .  S
N151        C170   1.451       .  S
N151        C152   1.369       .  A
C152        H153   1.078       .  S
C154        N155   1.362       .  A
C154        H164   1.076       .  S
N155        C156   1.412       .  A
C156        H162   1.082       .  S
C157        N158   1.359       .  A
C157        H159   1.046       .  S
N158        C182   1.460       .  S
N158        C160   1.360       .  A
C160        H161   1.065       .  S
C165        C166   1.540       .  S
C165        C171   1.562       .  S
C165        C169   1.570       .  S
C165        C316   1.538       .  S
C166        H173   1.088       .  S
C166        C167   1.342       .  D
C167        C168   1.510       .  S
C168        C172   1.582       .  S
C168        C170   1.525       .  S
C168        H174   1.110       .  S
C169        H175   1.073       .  S
C169        C170   1.369       .  D
C171        H176   1.081   1_554  S
C171        C172   1.352       .  D
C172        C190   1.546       .  S
C177        C178   1.575       .  S
C177        C183   1.560       .  S
C177        C181   1.511       .  S
C177        C284   1.526       .  S
C178        H185   1.086       .  S
C178        C179   1.363       .  D
C179        C180   1.641       .  S
C180        C184   1.665       .  S
C180        C182   1.573       .  S
C180        H186   1.106       .  S
C181        H187   1.061       .  S
C181        C182   1.322       .  D
C183        H188   1.084       .  S
C183        C184   1.364       .  D
C184        C212   1.660       .  S
C189        C191   1.493       .  S
C189        C193   1.576       .  S
C189        C192   1.691       .  S
C190        C194   1.524       .  S
C190        C196   1.559       .  S
C190        C195   1.589   1_554  S
C191        C199   1.367       .  A
C191        C194   1.365       .  A
C192        C203   1.472   1_554  A
C192        C195   1.427   1_554  A
C193        C207   1.415       .  A
C193        C196   1.375       .  A
C194        C197   1.374       .  A
C195        C201   1.429       .  A
C196        C204   1.412       .  A
C197        N198   1.344       .  A
C197        H210   1.078       .  S
N198        C199   1.347       .  A
C199        H200   1.068       .  S
C201        N202   1.384       .  A
C201        H211   1.082       .  S
N202        C203   1.409       .  A
N202        N225   1.494       .  S
C203        H209   1.079       .  S
C204        N205   1.368       .  A
C204        H206   1.081       .  S
N205        C207   1.375       .  A
C207        H208   1.066       .  S
C212        C214   1.547       .  S
C212        C216   1.549       .  S
C212        C215   1.715       .  S
C213        C217   1.514       .  S
C213        C219   1.522       .  S
C213        C218   1.570       .  S
C214        C222   1.391       .  A
C214        C217   1.378       .  A
C215        C226   1.490       .  A
C215        C218   1.434       .  A
C216        C230   1.387       .  A
C216        C219   1.358       .  A
C217        C220   1.370       .  A
C218        C224   1.413       .  A
C219        C227   1.381       .  A
C220        N221   1.349       .  A
C220        H233   1.072       .  S
N221        C222   1.366       .  A
C222        H223   1.081       .  S
C224        N225   1.360       .  A
C224        H234   1.078       .  S
N225        C226   1.423       .  A
C226        H232   1.082       .  S
C227        N228   1.357       .  A
C227        H229   1.055       .  S
N228        C230   1.370       .  A
C230        H231   1.073       .  S
N235        N236   1.321   1_556  A
N235        N241   1.317       .  A
N235       Mn264   2.205       .  S
N236        C243   1.357       .  A
N237        N239   1.317       .  A
N237        N238   1.326   1_655  A
N237       Mn253   2.234       .  S
N238        C244   1.360       .  A
N239        N240   1.312       .  A
N239       Mn264   2.175       .  S
N240        C244   1.344   1_655  A
N241        N242   1.313   1_556  A
N241       Mn253   2.194       .  S
N242        C243   1.339       .  A
C243        C517   1.481       .  S
C244        C412   1.475       .  S
N245        N251   1.312       .  A
N245        N246   1.319   1_655  A
N245       Mn275   2.218       .  S
N246        C254   1.360       .  A
N247        N248   1.321       .  A
N247        N249   1.311       .  A
N247       Mn253   2.231       .  S
N248        C255   1.360       .  A
N249        N250   1.318       .  A
N249       Mn275   2.175       .  S
N250        C255   1.352       .  A
N251        N252   1.321   1_655  A
N251       Mn253   2.188       .  S
N252        C254   1.351       .  A
Mn253      Cl277   2.488       .  S
C254        C476   1.480       .  S
C255        C325   1.486       .  S
N256        N257   1.328   1_565  A
N256        N262   1.310       .  A
N256       Mn264   2.228       .  S
N257        C265   1.363       .  A
N258        N260   1.312       .  A
N258        N259   1.319       .  A
N258       Mn276   2.167       .  S
N259        C266   1.345   1_565  A
N260        N261   1.320   1_565  A
N260       Mn264   2.221       .  S
N261        C266   1.360       .  A
N262        N263   1.309       .  A
N262       Mn276   2.164       .  S
N263        C265   1.347   1_565  A
Mn264      Cl277   2.587       .  S
C265        C348   1.475       .  S
C266        C444   1.471       .  S
N267        N268   1.323       .  A
N267        N273   1.316       .  A
N267       Mn275   2.200       .  S
N268        C278   1.352       .  A
N269        N270   1.311       .  A
N269        N271   1.305       .  A
N269       Mn276   2.145       .  S
N270        C279   1.344       .  A
N271        N272   1.324       .  A
N271       Mn275   2.225       .  S
N272        C279   1.362       .  A
N273        N274   1.317       .  A
N273       Mn276   2.182       .  S
N274        C278   1.349       .  A
Mn275      Cl277   2.565       .  S
Mn276      Cl277   2.489       .  S
C278        C389   1.492       .  S
C279        C293   1.489       .  S
C280        C281   1.409       .  A
C280        C285   1.393       .  A
C280        H290   1.074       .  S
C281        C282   1.446       .  A
C281        C286   1.520       .  S
C282        C287   1.507       .  S
C282        C283   1.401       .  A
C283        C284   1.383       .  A
C283        H288   1.084       .  S
C284        C285   1.429       .  A
C285        C289   1.529       .  S
C286        C291   1.431       .  A
C286        C295   1.408       .  A
C287        F303   1.383       .  S
C287        F304   1.364       .  S
C287        F305   1.379       .  S
C289        F300   1.376       .  S
C289        F301   1.384       .  S
C289        F302   1.386       .  S
C291        C296   1.517       .  S
C291        C292   1.411       .  A
C292        C293   1.407       .  A
C292        H297   1.082       .  S
C293        C294   1.402       .  A
C294        C298   1.503   1_655  S
C294        C295   1.415       .  A
C295        H299   1.076       .  S
C296        F309   1.385       .  S
C296        F310   1.384       .  S
C296        F311   1.381       .  S
C298        F306   1.376       .  S
C298        F307   1.380       .  S
C298        F308   1.384   1_455  S
C312        C313   1.402   1_554  A
C312        C317   1.402       .  A
C312        H322   1.081       .  S
C313        C314   1.407       .  A
C313        C318   1.482       .  S
C314        C319   1.520       .  S
C314        C315   1.401   1_655  A
C315        C316   1.424   1_556  A
C315        H320   1.079       .  S
C316        C317   1.433   1_455  A
C317        C321   1.524       .  S
C318        C323   1.418   1_556  A
C318        C327   1.401       .  A
C319        F335   1.382       .  S
C319        F336   1.381       .  S
C319        F337   1.384   1_655  S
C321        F332   1.382   1_655  S
C321        F333   1.384       .  S
C321        F334   1.379   1_655  S
C323        C328   1.511       .  S
C323        C324   1.405   1_554  A
C324        C325   1.404       .  A
C324        H329   1.082   1_556  S
C325        C326   1.412       .  A
C326        C330   1.505       .  S
C326        C327   1.396       .  A
C327        H331   1.083       .  S
C328        F341   1.385       .  S
C328        F342   1.383       .  S
C328        F343   1.383       .  S
C330        F338   1.380       .  S
C330        F339   1.381       .  S
C330        F340   1.383       .  S
C344        C345   1.409       .  A
C344        C349   1.401       .  A
C344        H354   1.081       .  S
C345        C346   1.420       .  A
C345        C350   1.487       .  S
C346        C351   1.514   1_655  S
C346        C347   1.412   1_655  A
C347        C348   1.410   1_455  A
C347        H352   1.083       .  S
C348        C349   1.403       .  A
C349        C353   1.508       .  S
C350        C355   1.418       .  A
C350        C359   1.378       .  A
C351        F367   1.383   1_545  S
C351        F368   1.384       .  S
C351        F369   1.382   1_455  S
C353        F364   1.382       .  S
C353        F365   1.384       .  S
C353        F366   1.380       .  S
C355        C360   1.500   1_545  S
C355        C356   1.409       .  A
C356        C357   1.399       .  A
C356        H361   1.083       .  S
C357        C358   1.466       .  A
C358        C362   1.544       .  S
C358        C359   1.399       .  A
C359        H363   1.083       .  S
C360        F373   1.381       .  S
C360        F374   1.376   1_565  S
C360        F375   1.376       .  S
C362        F370   1.377       .  S
C362        F371   1.381       .  S
C362        F372   1.386       .  S
C376        C377   1.401   1_554  A
C376        C381   1.407       .  A
C376        H386   1.083   1_554  S
C377        C378   1.405   1_556  A
C377        C382   1.473       .  S
C378        C383   1.523       .  S
C378        C379   1.398       .  A
C379        C380   1.424       .  A
C379        H384   1.078       .  S
C380        C381   1.427       .  A
C381        C385   1.515       .  S
C382        C387   1.407       .  A
C382        C391   1.400       .  A
C383        F399   1.384       .  S
C383        F400   1.383       .  S
C383        F401   1.381   1_554  S
C385        F396   1.380       .  S
C385        F397   1.378       .  S
C385        F398   1.371       .  S
C387        C392   1.517       .  S
C387        C388   1.403       .  A
C388        C389   1.413       .  A
C388        H393   1.079       .  S
C389        C390   1.419       .  A
C390        C394   1.512       .  S
C390        C391   1.402       .  A
C391        H395   1.085       .  S
C392        F405   1.382       .  S
C392        F406   1.377       .  S
C392        F407   1.379       .  S
C394        F402   1.381       .  S
C394        F403   1.378       .  S
C394        F404   1.384       .  S
C408        C409   1.396   1_565  A
C408        C413   1.401       .  A
C408        H418   1.083       .  S
C409        C410   1.412       .  A
C409        C414   1.477       .  S
C410        C415   1.518       .  S
C410        C411   1.407   1_545  A
C411        C412   1.406       .  A
C411        H416   1.084   1_566  S
C412        C413   1.425       .  A
C413        C417   1.521       .  S
C414        C419   1.405       .  A
C414        C423   1.401       .  A
C415        F431   1.384   1_556  S
C415        F432   1.382       .  S
C415        F433   1.384       .  S
C417        F428   1.385       .  S
C417        F429   1.369   1_455  S
C417        F430   1.370       .  S
C419        C424   1.521       .  S
C419        C420   1.399       .  A
C420        C421   1.422       .  A
C420        H425   1.080       .  S
C421        C422   1.426       .  A
C422        C426   1.520       .  S
C422        C423   1.409       .  A
C423        H427   1.083       .  S
C424        F437   1.382   1_545  S
C424        F438   1.384   1_545  S
C424        F439   1.385       .  S
C426        F434   1.379       .  S
C426        F435   1.381       .  S
C426        F436   1.385       .  S
C440        C441   1.402       .  A
C440        C445   1.400       .  A
C440        H450   1.084       .  S
C441        C442   1.421       .  A
C441        C446   1.476       .  S
C442        C447   1.512       .  S
C442        C443   1.400       .  A
C443        C444   1.395       .  A
C443        H448   1.083       .  S
C444        C445   1.408       .  A
C445        C449   1.501       .  S
C446        C451   1.420       .  A
C446        C455   1.405       .  A
C447        F463   1.383       .  S
C447        F464   1.377       .  S
C447        F465   1.383       .  S
C449        F460   1.380       .  S
C449        F461   1.383       .  S
C449        F462   1.383       .  S
C451        C456   1.513       .  S
C451        C452   1.412   1_556  A
C452        C453   1.413       .  A
C452        H457   1.084       .  S
C453        C454   1.405       .  A
C454        C458   1.501       .  S
C454        C455   1.389   1_554  A
C455        H459   1.084       .  S
C456        F469   1.381       .  S
C456        F470   1.377       .  S
C456        F471   1.385       .  S
C458        F466   1.384       .  S
C458        F467   1.376       .  S
C458        F468   1.382       .  S
C472        C473   1.412       .  A
C472        C477   1.411       .  A
C472        H482   1.084       .  S
C473        C474   1.414       .  A
C473        C478   1.499       .  S
C474        C479   1.512       .  S
C474        C475   1.408       .  A
C475        C476   1.402       .  A
C475        H480   1.082       .  S
C476        C477   1.415       .  A
C477        C481   1.513       .  S
C478        C483   1.408       .  A
C478        C487   1.406       .  A
C479        F495   1.381       .  S
C479        F496   1.384       .  S
C479        F497   1.381       .  S
C481        F492   1.377       .  S
C481        F493   1.385       .  S
C481        F494   1.381       .  S
C483        C488   1.518       .  S
C483        C484   1.410       .  A
C484        C485   1.434       .  A
C484        H489   1.077       .  S
C485        C486   1.424       .  A
C486        C490   1.510       .  S
C486        C487   1.398       .  A
C487        H491   1.067       .  S
C488        F501   1.385       .  S
C488        F502   1.380       .  S
C488        F503   1.382       .  S
C490        F498   1.384       .  S
C490        F499   1.379       .  S
C490        F500   1.366       .  S
C504        C505   1.410       .  A
C504        C509   1.414   1_655  A
C504        H514   1.084       .  S
C505        C506   1.401   1_655  A
C505        C510   1.466   1_545  S
C506        C511   1.528   1_545  S
C506        C507   1.387       .  A
C507        C508   1.427       .  A
C507        H512   1.081       .  S
C508        C509   1.420       .  A
C509        C513   1.514       .  S
C510        C515   1.410       .  A
C510        C519   1.390       .  A
C511        F527   1.381       .  S
C511        F528   1.378   1_465  S
C511        F529   1.385   1_565  S
C513        F524   1.381       .  S
C513        F525   1.383       .  S
C513        F526   1.386   1_455  S
C515        C520   1.516   1_565  S
C515        C516   1.408       .  A
C516        C517   1.407       .  A
C516        H521   1.083       .  S
C517        C518   1.431       .  A
C518        C522   1.522       .  S
C518        C519   1.389       .  A
C519        H523   1.085       .  S
C520        F533   1.380       .  S
C520        F534   1.385       .  S
C520        F535   1.382       .  S
C522        F530   1.386       .  S
C522        F531   1.380       .  S
C522        F532   1.376       .  S
