geometry optimzed in LAMMPS
_audit_creation_date              2020-12-01 
_audit_creation_method            'lammps2cif' 
_symmetry_space_group_name_H-M    'P1' 
_symmetry_Int_Tables_number       1 
_symmetry_cell_setting            triclinic 
loop_ 
_symmetry_equiv_pos_as_xyz 
  x,y,z 
_cell_length_a                    46.9200049 
_cell_length_b                    46.92200476874656 
_cell_length_c                    37.018306455795134 
_cell_angle_alpha                 89.76496425127063 
_cell_angle_beta                  90.37999643084748 
_cell_angle_gamma                 125.05021656208294 
loop_ 
_atom_site_label 
_atom_site_type_symbol 
_atom_site_fract_x 
_atom_site_fract_y 
_atom_site_fract_z 
_atom_site_charge 
C1          C  0.54227047  0.85987389  0.00167107     0.81000
N2          N  0.54564052  0.87996862  0.47174393    -0.77300
C3          C  0.53576160  0.90195563  0.47254991     0.83500
N4          N  0.53006019  0.91147932  0.50470200    -0.77200
C5          C  0.52743364  0.89248533  0.03493428     0.83600
N6          N  0.53635480  0.86962032  0.03370487    -0.78900
C7          C  0.29822000  0.90861989  0.49847369     0.81000
N8          N  0.31598675  0.92371254  0.46750522    -0.77300
C9          C  0.34990391  0.95116104  0.46820173     0.83500
N10         N  0.36648901  0.96379778  0.50039966    -0.77200
C11         C  0.35149226  0.94848982  0.03532630     0.83600
N12         N  0.31751131  0.92094982  0.03507013    -0.78900
N13         N  0.61305565  0.09962728  0.29059171    -0.05300
N14         N  0.63259301  0.11925317  0.31783700    -0.57400
N15         N  0.60701712  0.06847519  0.20776409    -0.05000
N16         N  0.62391904  0.06673985  0.18047040    -0.59500
N17         N  0.61111782  0.09868499  0.20791860    -0.04600
N18         N  0.63129085  0.11831120  0.18097297    -0.57400
N19         N  0.60925700  0.06959855  0.29115755    -0.04300
N20         N  0.62594178  0.06804529  0.31912125    -0.59900
C21         C  0.64051247  0.09932185  0.33535000     0.96900
C22         C  0.63898449  0.09800768  0.16405937     0.96700
N23         N  0.50958704  0.97295572  0.21057271    -0.05500
N24         N  0.49519537  0.95016185  0.18383977    -0.58000
N25         N  0.54617927  0.99168177  0.29257783    -0.03600
N26         N  0.55770978  0.98326072  0.32016738    -0.59300
N27         N  0.51216593  0.97500266  0.29412178    -0.05500
N28         N  0.49983702  0.95494060  0.32307506    -0.58300
N29         N  0.54364836  0.98966751  0.21003705    -0.03200
N30         N  0.55313302  0.97839623  0.18334368    -0.59300
Mn31       Mn  0.57723405  0.02951867  0.25026606     1.18400
C32         C  0.52274750  0.95379774  0.16720429     0.99000
C33         C  0.52864036  0.96032390  0.33892869     0.99600
N34         N  0.55886659  0.12069557  0.20938283    -0.05500
N35         N  0.57129850  0.14175605  0.18120711    -0.61800
N36         N  0.52733469  0.10488708  0.29356497    -0.04300
N37         N  0.51778182  0.11485950  0.32145368    -0.62500
N38         N  0.56139051  0.12133840  0.29312094    -0.05000
N39         N  0.57568286  0.14257121  0.32109797    -0.62100
N40         N  0.52485305  0.10409080  0.21091674    -0.03900
N41         N  0.51344811  0.11357395  0.18411755    -0.62800
Mn42       Mn  0.58709289  0.11137374  0.25010849     1.10700
C43         C  0.54261752  0.13706507  0.16580118     1.00200
C44         C  0.54813342  0.13826986  0.33841128     1.00300
N45         N  0.46027418  0.99670448  0.29477151    -0.05000
N46         N  0.44058311  0.97716443  0.32191294    -0.60400
N47         N  0.46225976  0.02570013  0.21147621    -0.04400
N48         N  0.44565125  0.02710174  0.18334031    -0.57200
N49         N  0.45872189  0.99578091  0.21209039    -0.05700
N50         N  0.43954776  0.97616191  0.18470518    -0.60000
N51         N  0.46395035  0.02668026  0.29487084    -0.04700
N52         N  0.44701597  0.02824683  0.32224015    -0.57200
Mn53       Mn  0.48417443  0.98387642  0.25294783     1.20200
Mn54       Mn  0.49383126  0.06570680  0.25273217     1.10100
Cl55       Cl  0.53560129  0.04763295  0.25143137    -0.85100
C56         C  0.43251802  0.99713711  0.33885739     0.97200
C57         C  0.43151239  0.99590685  0.16702258     0.97000
C58         C  0.53433868  0.23959714  0.49941363     0.81000
N59         N  0.54070814  0.22906722  0.46824694    -0.77300
C60         C  0.54977772  0.20629045  0.46859781     0.83500
N61         N  0.55240718  0.19385483  0.50070649    -0.77200
C62         C  0.53914912  0.19943603  0.03332310     0.83600
N63         N  0.53187788  0.22358569  0.03298941    -0.78900
C64         C  0.77071712  0.18088891  0.00011079     0.81000
N65         N  0.74891854  0.17206451  0.47100396    -0.77300
C66         C  0.71479606  0.14526355  0.47044029     0.83500
N67         N  0.69735296  0.13226791  0.50203556    -0.77200
C68         C  0.71905556  0.14223588  0.03266940     0.83600
N69         N  0.75377337  0.16767807  0.03197352    -0.78900
N70         N  0.04165317  0.60886187  0.29123609    -0.05300
N71         N  0.03810602  0.62449840  0.31866890    -0.57400
N72         N  0.07437653  0.61615333  0.20879261    -0.05000
N73         N  0.09388009  0.63604914  0.18180644    -0.59500
N74         N  0.04353777  0.61057512  0.20731930    -0.04600
N75         N  0.04148751  0.62663228  0.17902430    -0.57400
N76         N  0.07263238  0.61466941  0.29188177    -0.04300
N77         N  0.09103085  0.63488336  0.31944584    -0.59900
C78         C  0.06911454  0.64063426  0.33598727     0.96900
C79         C  0.07322854  0.64253537  0.16340468     0.96700
N80         N  0.08614603  0.53490762  0.20721494    -0.05500
N81         N  0.09746535  0.52648940  0.17955223    -0.58000
N82         N  0.09952876  0.56650335  0.29144374    -0.03600
N83         N  0.11986320  0.58022312  0.32012902    -0.59300
N84         N  0.08507129  0.53280095  0.29008538    -0.05500
N85         N  0.09537328  0.52292873  0.31764154    -0.58300
N86         N  0.10089032  0.56868174  0.20778061    -0.03200
N87         N  0.12228197  0.58388347  0.18016583    -0.59300
Mn88       Mn  0.08805404  0.59252528  0.25017159     1.18400
C89         C  0.11997111  0.55723640  0.16288422     0.99000
C90         C  0.11707979  0.55274999  0.33614977     0.99600
N91         N  0.96630909  0.54416175  0.20596909    -0.05500
N92         N  0.95597829  0.55367954  0.17816126    -0.61800
N93         N  0.95043867  0.50944772  0.28941146    -0.04300
N94         N  0.92915104  0.49505839  0.31723567    -0.62500
N95         N  0.96530222  0.54323775  0.28891467    -0.05000
N96         N  0.95445631  0.55251142  0.31613888    -0.62100
N97         N  0.95099214  0.51029472  0.20564888    -0.03900
N98         N  0.93002991  0.49614982  0.17736940    -0.62800
Mn99       Mn  0.00378263  0.57740887  0.24822800     1.10700
C100        C  0.93334292  0.52356930  0.16044411     1.00200
C101        C  0.93188414  0.52233473  0.33360201     1.00300
N102        N  0.00821607  0.46671241  0.28844214    -0.05000
N103        N  0.01139176  0.45105640  0.31628276    -0.60400
N104        N  0.97808641  0.46331391  0.20579115    -0.04400
N105        N  0.95996068  0.44499750  0.17726055    -0.57200
N106        N  0.00908029  0.46919630  0.20560396    -0.05700
N107        N  0.01272144  0.45507438  0.17692316    -0.60000
N108        N  0.97767657  0.46190760  0.28881497    -0.04700
N109        N  0.95958127  0.44320386  0.31710021    -0.57200
Mn110      Mn  0.04753045  0.50012943  0.24776968     1.20200
Mn111      Mn  0.96296913  0.48505949  0.24754148     1.10100
Cl112      Cl  0.02558057  0.53877547  0.24850051    -0.85100
C113        C  0.98079604  0.43640312  0.33371043     0.97200
C114        C  0.98188554  0.44005839  0.15952534     0.97000
C115        C  0.22251039  0.55300602  0.50211396     0.81000
N116        N  0.20670580  0.55239952  0.47109021    -0.77300
C117        C  0.18199031  0.55877883  0.47118014     0.83500
N118        N  0.17271733  0.56570601  0.50286862    -0.77200
C119        C  0.18905485  0.56482580  0.03085185     0.83600
N120        N  0.21283587  0.55701603  0.02966889    -0.78900
C121        C  0.90232094  0.31601282  0.50201314     0.81000
N122        N  0.91714314  0.33305056  0.47054258    -0.77300
C123        C  0.94423971  0.36716800  0.47064875     0.83500
N124        N  0.95655541  0.38452148  0.50243128    -0.77200
C125        C  0.94689311  0.36255167  0.02781370     0.83600
N126        N  0.92071796  0.32824850  0.02770725    -0.78900
C127        C  0.83157517  0.53455160  0.49626441     0.81000
N128        N  0.84239818  0.52922794  0.46471559    -0.77300
C129        C  0.86557495  0.52070086  0.46465368     0.83500
N130        N  0.87837633  0.51788779  0.49641281    -0.77200
C131        C  0.86317615  0.51861977  0.02961083     0.83600
N132        N  0.83922520  0.52618273  0.02978463    -0.78900
C133        C  0.16106281  0.77744971  0.49486634     0.81000
N134        N  0.14536836  0.76011760  0.46358711    -0.77300
C135        C  0.11667720  0.72653736  0.46400862     0.83500
N136        N  0.10399222  0.71025906  0.49635121    -0.77200
C137        C  0.11961110  0.72486302  0.03262242     0.83600
N138        N  0.14869019  0.75811839  0.03334528    -0.78900
N139        N  0.48194899  0.46442447  0.20520382    -0.05300
N140        N  0.46574410  0.44405811  0.17690502    -0.57400
N141        N  0.51359587  0.47334979  0.28903241    -0.05000
N142        N  0.51923236  0.45880184  0.31597350    -0.59500
N143        N  0.48110553  0.46360882  0.28906068    -0.04600
N144        N  0.46404805  0.44234918  0.31645077    -0.57400
N145        N  0.51440181  0.47411844  0.20656120    -0.04300
N146        N  0.52089368  0.46049758  0.17968786    -0.59900
C147        C  0.49048007  0.44176812  0.16138745     0.96900
C148        C  0.48823558  0.43952287  0.33291243     0.96700
N149        N  0.59871188  0.57748548  0.29035452    -0.05500
N150        N  0.61980772  0.59343086  0.31817413    -0.58000
N151        N  0.58762177  0.54490485  0.20728602    -0.03600
N152        N  0.60088552  0.53787449  0.18040906    -0.59300
N153        N  0.59918570  0.57793247  0.20678170    -0.05500
N154        N  0.62048639  0.59400920  0.17924256    -0.58300
N155        N  0.58691017  0.54439371  0.29006641    -0.03200
N156        N  0.59978218  0.53719940  0.31745549    -0.59300
Mn157      Mn  0.55105123  0.50869511  0.24829343     1.18400
C158        C  0.62027682  0.56794092  0.33485158     0.99000
C159        C  0.62136648  0.56863899  0.16309373     0.99600
N160        N  0.44575869  0.50376948  0.28841844    -0.05500
N161        N  0.42435555  0.48764013  0.31585681    -0.61800
N162        N  0.45828810  0.53772895  0.20564754    -0.04300
N163        N  0.44612146  0.54542337  0.17799707    -0.62500
N164        N  0.44663492  0.50467070  0.20481514    -0.05000
N165        N  0.42636581  0.48927612  0.17626908    -0.62100
N166        N  0.45746440  0.53685268  0.28806498    -0.03900
N167        N  0.44412341  0.54386621  0.31478355    -0.62800
Mn168      Mn  0.46248709  0.48280163  0.24684802     1.10700
C169        C  0.42351530  0.51306667  0.33187494     1.00200
C170        C  0.42619720  0.51506768  0.15985544     1.00300
N171        N  0.56368827  0.61785014  0.20644546    -0.05000
N172        N  0.58020034  0.63768253  0.17805576    -0.60400
N173        N  0.53096902  0.60795614  0.28969002    -0.04400
N174        N  0.52515912  0.62183223  0.31704524    -0.57200
N175        N  0.56331160  0.61725887  0.29042679    -0.05700
N176        N  0.58004167  0.63735455  0.31868993    -0.60000
N177        N  0.53132282  0.60844311  0.20679988    -0.04700
N178        N  0.52521381  0.62175818  0.17901084    -0.57200
Mn179      Mn  0.58249705  0.59890458  0.24847282     1.20200
Mn180      Mn  0.49406560  0.57328988  0.24761697     1.10100
Cl181      Cl  0.52250669  0.54090415  0.24782810    -0.85100
C182        C  0.55582745  0.64000181  0.16128052     0.97200
C183        C  0.55590816  0.64006529  0.33495581     0.97000
C184        C  0.48546571  0.32873150  0.49563623     0.81000
N185        N  0.49314627  0.35163992  0.02896994    -0.77300
C186        C  0.48660898  0.37631246  0.02833221     0.83500
N187        N  0.48492871  0.38929351  0.99606812    -0.77200
C188        C  0.47510881  0.36577171  0.46384640     0.83600
N189        N  0.48168545  0.34108059  0.46407915    -0.78900
C190        C  0.32608103  0.52246997  0.49886186     0.81000
N191        N  0.33587983  0.51365912  0.02377365    -0.77300
C192        C  0.36019734  0.50674362  0.02452437     0.83500
N193        N  0.37180167  0.50222800  0.99303142    -0.77200
C194        C  0.36107766  0.51069278  0.46587556     0.83600
N195        N  0.33744510  0.51855975  0.46697124    -0.78900
C196        C  0.73611635  0.57525975  0.49485709     0.81000
N197        N  0.71668258  0.57168054  0.03151091    -0.77300
C198        C  0.69266600  0.57916573  0.03185593     0.83500
N199        N  0.68758722  0.58958862  0.49587688    -0.77200
C200        C  0.69737993  0.58360640  0.46396460     0.83600
N201        N  0.72130595  0.57606440  0.46363514    -0.78900
C202        C  0.57411060  0.75944219  0.49733786     0.81000
N203        N  0.56766184  0.73685896  0.02744631    -0.77300
C204        C  0.57058532  0.70979008  0.02706752     0.83500
N205        N  0.57335689  0.69762760  0.99504332    -0.77200
C206        C  0.57427686  0.71569632  0.46599463     0.83600
N207        N  0.57331928  0.74413176  0.46584646    -0.78900
C208        C  0.37791864  0.53047466  0.40218048     0.24400
C209        C  0.37453719  0.50883997  0.43071772    -0.23700
C210        C  0.38482935  0.48629180  0.42538682     0.19300
C211        C  0.39914451  0.48613438  0.39238973     0.24400
C212        C  0.40393053  0.50897395  0.36462059    -0.23600
C213        C  0.39250398  0.53055353  0.36954683     0.19300
F214        F  0.39581407  0.55215765  0.34279066    -0.13600
F215        F  0.36867239  0.55289665  0.40629914    -0.16000
F216        F  0.40979677  0.46489494  0.38824544    -0.16000
F217        F  0.38113580  0.46450567  0.45209594    -0.13600
C218        C  0.40127047  0.53646332  0.11680182     0.24400
C219        C  0.40775389  0.51148415  0.12581725    -0.23700
C220        C  0.39768530  0.48425174  0.10138920     0.19300
C221        C  0.38241532  0.48271638  0.06814032     0.24400
C222        C  0.37622371  0.50784279  0.05927280    -0.23600
C223        C  0.38549810  0.53451820  0.08401315     0.19300
F224        F  0.38030832  0.55949987  0.07596334    -0.13600
F225        F  0.41004640  0.56286376  0.13976723    -0.16000
F226        F  0.37314445  0.45639363  0.04487726    -0.16000
F227        F  0.40328210  0.45956633  0.10925452    -0.13600
C228        C  0.55064222  0.69662669  0.40313298     0.24400
C229        C  0.57106735  0.69767464  0.43182637    -0.23700
C230        C  0.58701553  0.67995558  0.42810274     0.19300
C231        C  0.58284041  0.66186880  0.39625076     0.24400
C232        C  0.56204394  0.66053324  0.36789545    -0.23600
C233        C  0.54601157  0.67806012  0.37164413     0.19300
F234        F  0.52598584  0.67746378  0.34459129    -0.13600
F235        F  0.53390591  0.71237662  0.40601019    -0.16000
F236        F  0.59801977  0.64454577  0.39371605    -0.16000
F237        F  0.60672268  0.68016070  0.45527107    -0.13600
C238        C  0.58609902  0.66491400  0.10200707     0.24400
C239        C  0.56094488  0.65890775  0.12732401    -0.23700
C240        C  0.53928688  0.66984455  0.11927823     0.19300
C241        C  0.54260402  0.68632782  0.08665583     0.24400
C242        C  0.56746167  0.69204427  0.06119504    -0.23600
C243        C  0.58906434  0.68103306  0.06895465     0.19300
F244        F  0.61341063  0.68644727  0.04485929    -0.13600
F245        F  0.60722142  0.65447368  0.10883690    -0.16000
F246        F  0.52071132  0.69583818  0.07953836    -0.16000
F247        F  0.51496367  0.66490348  0.14315004    -0.14800
C248        C  0.64554366  0.54681559  0.37795383     0.24400
C249        C  0.64073034  0.57272874  0.36764784    -0.23700
C250        C  0.65536792  0.60278714  0.38919340     0.19300
C251        C  0.67400623  0.60653475  0.42061084     0.24400
C252        C  0.67887811  0.58069295  0.43050028    -0.23600
C253        C  0.66468307  0.55095289  0.40885826     0.19300
F254        F  0.66825342  0.52516730  0.41838621    -0.13600
F255        F  0.63176713  0.51730354  0.35819823    -0.16000
F256        F  0.68771819  0.63559843  0.44110515    -0.16000
F257        F  0.65116834  0.62826567  0.38030644    -0.13600
C258        C  0.65080610  0.59960877  0.10514649     0.24400
C259        C  0.64166601  0.57323830  0.13048409    -0.23700
C260        C  0.65085795  0.55001226  0.12371565     0.19300
C261        C  0.66824381  0.55267939  0.09210791     0.24400
C262        C  0.67653156  0.57838198  0.06629124    -0.23600
C263        C  0.66771992  0.60188384  0.07307346     0.19300
F264        F  0.67555769  0.62708582  0.04870327    -0.13600
F265        F  0.64236886  0.62245143  0.11079170    -0.16000
F266        F  0.67549839  0.52895422  0.08604538    -0.16000
F267        F  0.64298799  0.52451174  0.14769745    -0.13600
C268        C  0.49976876  0.38786469  0.40243844     0.24400
C269        C  0.47605821  0.38231333  0.42937044    -0.23700
C270        C  0.45510660  0.39451848  0.42368815     0.19300
C271        C  0.45792240  0.41199999  0.39164228     0.24400
C272        C  0.48235215  0.41829762  0.36525809    -0.23600
C273        C  0.50295438  0.40572787  0.37087852     0.19300
F274        F  0.52651864  0.41088608  0.34583126    -0.13600
F275        F  0.52134407  0.37763500  0.40734051    -0.16000
F276        F  0.43781095  0.42397926  0.38711604    -0.16000
F277        F  0.43205340  0.38968114  0.44920138    -0.13600
C278        C  0.50726761  0.41003364  0.12390759     0.24400
C279        C  0.48613918  0.42205361  0.12844277    -0.23700
C280        C  0.46359135  0.41747293  0.10027031     0.19300
C281        C  0.46340287  0.40243495  0.06747735     0.24400
C282        C  0.48530786  0.39126385  0.06280179    -0.23600
C283        C  0.50694791  0.39495615  0.09153865     0.19300
F284        F  0.52919373  0.38544380  0.08787952    -0.13600
F285        F  0.52868228  0.41312668  0.15084779    -0.16000
F286        F  0.44185998  0.39876947  0.04041678    -0.16000
F287        F  0.44284849  0.42877125  0.10391096    -0.13600
C288        C  0.78009044  0.53193437  0.02835681     0.24400
C289        C  0.80703095  0.54479701  0.49604767    -0.23700
C290        C  0.78271749  0.53412016  0.46777172     0.19300
C291        C  0.75990956  0.54422323  0.46716757     0.24400
C292        C  0.76092606  0.56532563  0.49482982    -0.23600
C293        C  0.75654576  0.54114842  0.02885774     0.19300
F294        F  0.73528467  0.53162245  0.05781318    -0.13600
F295        F  0.78074475  0.51409988  0.05695067    -0.16000
F296        F  0.73608012  0.53228830  0.44003108    -0.16000
F297        F  0.78024587  0.51299867  0.44111258    -0.13600
C298        C  0.27700161  0.51837778  0.02387452     0.24400
C299        C  0.30025475  0.53119365  0.49977278    -0.23700
C300        C  0.28716371  0.53563871  0.46745910     0.19300
C301        C  0.26218482  0.54282043  0.46826599     0.24400
C302        C  0.24948667  0.54584338  0.50141586    -0.23600
C303        C  0.25409620  0.52827975  0.02555327     0.19300
F304        F  0.23546098  0.52123244  0.05623706    -0.13600
F305        F  0.27936928  0.50220569  0.05305923    -0.16000
F306        F  0.25064526  0.54684205  0.43620760    -0.16000
F307        F  0.29834401  0.53309305  0.43467922    -0.13600
C308        C  0.87995744  0.48989581  0.07362192     0.24400
C309        C  0.87935980  0.51843878  0.06360312    -0.23700
C310        C  0.89663013  0.54842466  0.08509090     0.19300
C311        C  0.91428338  0.55005415  0.11629464     0.24400
C312        C  0.91456924  0.52136657  0.12705446    -0.23600
C313        C  0.89712042  0.49114983  0.10537885     0.19300
F314        F  0.89727343  0.46315421  0.11438321    -0.13600
F315        F  0.86377651  0.46082081  0.05277744    -0.16000
F316        F  0.93117842  0.57994543  0.13583999    -0.16000
F317        F  0.89757663  0.57681827  0.07499559    -0.13600
C318        C  0.90850575  0.54684326  0.37365061     0.24400
C319        C  0.91295939  0.52019889  0.36637217    -0.23700
C320        C  0.90033132  0.49269921  0.39125406     0.19300
C321        C  0.88446773  0.49250643  0.42327838     0.24400
C322        C  0.88027825  0.51928443  0.43035181    -0.23600
C323        C  0.89209673  0.54621304  0.40514715     0.19300
F324        F  0.88919473  0.57289856  0.41178432    -0.13600
F325        F  0.92012536  0.57375335  0.35031940    -0.16000
F326        F  0.87307344  0.46615830  0.44731183    -0.16000
F327        F  0.90431769  0.46666503  0.38522878    -0.13600
C328        C  0.99973892  0.42633638  0.10242805     0.24400
C329        C  0.97320230  0.42060434  0.12556251    -0.23700
C330        C  0.93819919  0.39587060  0.11606752     0.19300
C331        C  0.92989662  0.37648390  0.08457602     0.24400
C332        C  0.95638703  0.38201532  0.06166316    -0.23600
C333        C  0.99131595  0.40733633  0.07046272     0.19300
F334        F  0.01720422  0.41330826  0.04836411    -0.13600
F335        F  0.03376625  0.45084656  0.11028215    -0.16000
F336        F  0.89582273  0.35305075  0.07585356    -0.16000
F337        F  0.91190238  0.39009575  0.13736782    -0.13600
C338        C  0.96431027  0.43207383  0.39778407     0.24400
C339        C  0.97334554  0.41944675  0.36900486    -0.23700
C340        C  0.97463047  0.39054821  0.37419986     0.19300
C341        C  0.96557777  0.37360092  0.40765287     0.24400
C342        C  0.95644300  0.38623289  0.43641690    -0.23600
C343        C  0.95633766  0.41586089  0.43143063     0.19300
F344        F  0.94690125  0.42811041  0.45865183    -0.13600
F345        F  0.96341342  0.46028729  0.39327389    -0.16000
F346        F  0.96561082  0.34487196  0.41202973    -0.16000
F347        F  0.98326635  0.37798542  0.34656265    -0.13600
C348        C  0.16313793  0.58723280  0.07118674     0.24400
C349        C  0.17372947  0.56491488  0.06566990    -0.23700
C350        C  0.16758316  0.54109148  0.09298334     0.19300
C351        C  0.15028274  0.53884816  0.12457791     0.24400
C352        C  0.13943454  0.56088023  0.12996401    -0.23600
C353        C  0.14647098  0.58548309  0.10324284     0.19300
F354        F  0.13595967  0.60686023  0.10747848    -0.13600
F355        F  0.16892631  0.61077783  0.04556308    -0.16000
F356        F  0.14424924  0.51510046  0.15005142    -0.16000
F357        F  0.17693305  0.51880423  0.08853724    -0.13600
C358        C  0.14146731  0.53014236  0.37834201     0.24400
C359        C  0.13399628  0.55456564  0.37054652    -0.23700
C360        C  0.14195473  0.58011493  0.39633764     0.19300
C361        C  0.15682542  0.58101955  0.42951307     0.24400
C362        C  0.16475828  0.55694645  0.43704523    -0.23600
C363        C  0.15694055  0.53147994  0.41119300     0.19300
F364        F  0.16363422  0.50737684  0.41800783    -0.13600
F365        F  0.13440594  0.50531824  0.35392263    -0.16000
F366        F  0.16425530  0.60597340  0.45389873    -0.16000
F367        F  0.13469497  0.60381256  0.38978484    -0.13600
C368        C  0.06011059  0.66110709  0.10528191     0.24400
C369        C  0.08446480  0.66406928  0.13024802    -0.23700
C370        C  0.12023323  0.68726835  0.12275178     0.19300
C371        C  0.13142227  0.70709353  0.09119889     0.24400
C372        C  0.10718692  0.70414464  0.06622639    -0.23600
C373        C  0.07141302  0.68074696  0.07333019     0.19300
F374        F  0.04742195  0.67719967  0.04953912    -0.13600
F375        F  0.02540728  0.63865220  0.11129772    -0.16000
F376        F  0.16611834  0.72831238  0.08447496    -0.16000
F377        F  0.14465756  0.69102751  0.14605287    -0.13600
C378        C  0.05756661  0.65297048  0.39803863     0.24400
C379        C  0.07895493  0.66370076  0.36747241    -0.23700
C380        C  0.11062841  0.69666467  0.36727530     0.19300
C381        C  0.12177377  0.71805967  0.39772291     0.24400
C382        C  0.10190573  0.70644508  0.42969569    -0.23600
C383        C  0.06901279  0.67399208  0.42902278     0.19300
F384        F  0.04801654  0.66226886  0.45841646    -0.13600
F385        F  0.02636797  0.62143261  0.39854512    -0.16000
F386        F  0.15273967  0.74962653  0.39598736    -0.16000
F387        F  0.13091265  0.70824615  0.33734571    -0.13600
C388        C  0.85314644  0.26350152  0.46943603     0.24400
C389        C  0.86993509  0.28022149  0.50207159    -0.23700
C390        C  0.85931718  0.25832931  0.03054632     0.19300
C391        C  0.82616632  0.22722952  0.03151357     0.24400
C392        C  0.80282781  0.21688139  0.50247508    -0.23600
C393        C  0.82012415  0.23225344  0.46961897     0.19300
F394        F  0.80485771  0.21789318  0.43725766    -0.13600
F395        F  0.86788805  0.27783553  0.43698798    -0.16000
F396        F  0.81148072  0.21424299  0.06431299    -0.16000
F397        F  0.87502185  0.27335551  0.06257198    -0.13600
C398        C  0.52391041  0.27993262  0.46639865     0.24400
C399        C  0.52200509  0.26258850  0.49845619    -0.23700
C400        C  0.52161003  0.27929053  0.03271380     0.19300
C401        C  0.51399736  0.30402138  0.03193750     0.24400
C402        C  0.49628176  0.30451060  0.49593310    -0.23600
C403        C  0.51097342  0.30032570  0.46507114     0.19300
F404        F  0.51379428  0.31662854  0.43356648    -0.13600
F405        F  0.53894693  0.27789413  0.43622085    -0.16000
F406        F  0.51456264  0.31875179  0.06365863    -0.16000
F407        F  0.52905192  0.27131242  0.06513718    -0.13600
C408        C  0.67107222  0.09546521  0.07147666     0.24400
C409        C  0.70032928  0.13004554  0.06747908    -0.23700
C410        C  0.71033290  0.15343695  0.09643215     0.19300
C411        C  0.69052480  0.14287319  0.12799952     0.24400
C412        C  0.66085104  0.10858670  0.13155121    -0.23600
C413        C  0.65178154  0.08472328  0.10343918     0.19300
F414        F  0.62338026  0.05133659  0.10630783    -0.13600
F415        F  0.66110924  0.07202137  0.04442481    -0.16000
F416        F  0.70052536  0.16613284  0.15525921    -0.16000
F417        F  0.73842629  0.18699574  0.09368929    -0.13600
C418        C  0.65354407  0.08591773  0.39628733     0.24400
C419        C  0.66100687  0.11018697  0.36897934    -0.23700
C420        C  0.68691230  0.14565813  0.37488949     0.19300
C421        C  0.70454339  0.15686942  0.40780123     0.24400
C422        C  0.69648870  0.13280315  0.43554909    -0.23600
C423        C  0.67092611  0.09723473  0.42955750     0.19300
F424        F  0.66299601  0.07347723  0.45578613    -0.13600
F425        F  0.62857732  0.05147454  0.39130685    -0.16000
F426        F  0.72859749  0.19152039  0.41295650    -0.16000
F427        F  0.69528199  0.16959362  0.34869567    -0.13600
C428        C  0.51567927  0.15859026  0.12591893     0.24400
C429        C  0.54258248  0.15427966  0.13249144    -0.23700
C430        C  0.56853662  0.16530960  0.10634090     0.19300
C431        C  0.56731395  0.17992697  0.07394595     0.24400
C432        C  0.54065784  0.18452774  0.06761528    -0.23600
C433        C  0.51489008  0.17384428  0.09383624     0.19300
F434        F  0.48818824  0.17693565  0.08780139    -0.13600
F435        F  0.49018251  0.14820995  0.15060286    -0.16000
F436        F  0.59235582  0.18986618  0.04883574    -0.16000
F437        F  0.59446164  0.16092586  0.11156166    -0.13600
C438        C  0.57211842  0.16195890  0.40012685     0.24400
C439        C  0.55057401  0.15745948  0.37098019    -0.23700
C440        C  0.53029666  0.17058566  0.37340964     0.19300
C441        C  0.53138417  0.18792400  0.40446186     0.24400
C442        C  0.55205099  0.19157940  0.43429569    -0.23600
C443        C  0.57261428  0.17859583  0.43172075     0.19300
F444        F  0.59305131  0.18182523  0.45980262    -0.13600
F445        F  0.59139010  0.14879900  0.39866759    -0.16000
F446        F  0.51090912  0.19972904  0.40575335    -0.16000
F447        F  0.50934237  0.16665952  0.34555128    -0.13600
C448        C  0.24681871  0.85922073  0.46385703     0.24400
C449        C  0.26151856  0.87709885  0.49678654    -0.23700
C450        C  0.24487570  0.86087163  0.03566486     0.19300
C451        C  0.21162220  0.82951688  0.03538440     0.24400
C452        C  0.19419232  0.81316093  0.49470458    -0.23600
C453        C  0.21377302  0.82771348  0.46288633     0.19300
F454        F  0.20175012  0.81102630  0.43072862    -0.13600
F455        F  0.26470289  0.87137720  0.43239570    -0.16000
F456        F  0.19510704  0.81633829  0.06740550    -0.16000
F457        F  0.25888162  0.87640823  0.06801150    -0.13600
C458        C  0.41490978  0.00855625  0.10773792     0.24400
C459        C  0.41013281  0.98441650  0.13395544    -0.23700
C460        C  0.38543194  0.94865401  0.12780802     0.19300
C461        C  0.36575117  0.93716987  0.09611540     0.24400
C462        C  0.37077278  0.96117489  0.06967061    -0.23600
C463        C  0.39559283  0.99695611  0.07559986     0.19300
F464        F  0.40106742  0.02064183  0.05031846    -0.13600
F465        F  0.43915090  0.04320342  0.11255969    -0.16000
F466        F  0.34285948  0.90239205  0.09061106    -0.16000
F467        F  0.38025079  0.92464450  0.15251575    -0.13600
C468        C  0.36538308  0.93922802  0.40883964     0.24400
C469        C  0.36968239  0.96358064  0.43428122    -0.23700
C470        C  0.39399441  0.99927867  0.42766292     0.19300
C471        C  0.41388424  0.01043685  0.39606160     0.24400
C472        C  0.41027813  0.98593925  0.37114459    -0.23600
C473        C  0.38560939  0.95027099  0.37771792     0.19300
F474        F  0.38087738  0.92592481  0.35392734    -0.13600
F475        F  0.34259127  0.90452052  0.41483020    -0.16000
F476        F  0.43739576  0.04508793  0.39045443    -0.16000
F477        F  0.39831957  0.02328492  0.45167905    -0.13600
C478        C  0.55599525  0.79504814  0.46789314     0.24400
C479        C  0.57108371  0.78926284  0.49743905    -0.23700
C480        C  0.55767369  0.79194499  0.03099005     0.19300
C481        C  0.55172145  0.81783654  0.03229235     0.24400
C482        C  0.55065383  0.83368730  0.00037688    -0.23600
C483        C  0.54983853  0.82077262  0.46943449     0.19300
F484        F  0.53377533  0.82416612  0.44078039    -0.13600
F485        F  0.54562240  0.77484625  0.43787672    -0.16000
F486        F  0.54654879  0.82684611  0.06515613    -0.16000
F487        F  0.55774083  0.77736310  0.06272321    -0.13600
C488        C  0.54524690  0.92630505  0.13074102     0.24400
C489        C  0.52070500  0.93413364  0.13509845    -0.23700
C490        C  0.49621244  0.92525813  0.10748658     0.19300
C491        C  0.49787441  0.91100811  0.07501782     0.24400
C492        C  0.52343369  0.90457353  0.07012285    -0.23600
C493        C  0.54643464  0.91141693  0.09871803     0.19300
F494        F  0.57134886  0.90541945  0.09505466    -0.13600
F495        F  0.56839249  0.93336164  0.15748696    -0.16000
F496        F  0.47462961  0.90365168  0.04829204    -0.16000
F497        F  0.47179037  0.93192118  0.11118507    -0.13600
C498        C  0.55872136  0.92738488  0.41212368     0.24400
C499        C  0.53318046  0.91658254  0.43860748    -0.23700
C500        C  0.50542158  0.91950085  0.43202280     0.19300
C501        C  0.50320110  0.93291276  0.39910715     0.24400
C502        C  0.52911443  0.94412498  0.37279567    -0.23600
C503        C  0.55679283  0.94111788  0.37961529     0.19300
F504        F  0.58199603  0.95119312  0.35465415    -0.13600
F505        F  0.58621617  0.92553661  0.41810214    -0.16000
F506        F  0.47629259  0.93572909  0.39340138    -0.16000
F507        F  0.48019779  0.90879238  0.45711876    -0.13600
C508        C  0.54983338  0.86718641  0.50261770     0.81000
N509        N  0.53977322  0.87392260  0.97073388    -0.77300
C510        C  0.53086142  0.89675838  0.97150090     0.83500
N511        N  0.52448234  0.90586938  0.00365226    -0.77200
C512        C  0.53459785  0.89931817  0.53600030     0.83600
N513        N  0.54458308  0.87721729  0.53486855    -0.78900
C514        C  0.30020280  0.90696803  0.00343863     0.81000
N515        N  0.31776092  0.92050777  0.97196151    -0.77300
C516        C  0.35173910  0.94797114  0.97182261     0.83500
N517        N  0.36851496  0.96197367  0.00363647    -0.77200
C518        C  0.34929885  0.94879757  0.53172132     0.83600
N519        N  0.31532493  0.92101115  0.53062619    -0.78900
N520        N  0.60945936  0.10181422  0.79291569    -0.05300
N521        N  0.62944609  0.12184295  0.81985773    -0.57400
N522        N  0.60527675  0.07155672  0.71011347    -0.05000
N523        N  0.62208388  0.07050645  0.68231766    -0.59500
N524        N  0.60788427  0.10100880  0.71026809    -0.04600
N525        N  0.62663444  0.12067298  0.68277537    -0.57400
N526        N  0.60649974  0.07218809  0.79321966    -0.04300
N527        N  0.62401386  0.07119203  0.82055541    -0.59900
C528        C  0.63825330  0.10232337  0.83681934     0.96900
C529        C  0.63534546  0.10136777  0.66556726     0.96700
N530        N  0.51011124  0.97471551  0.71110216    -0.05500
N531        N  0.49719260  0.95270227  0.68373152    -0.58000
N532        N  0.54518046  0.99333434  0.79409996    -0.03600
N533        N  0.55667650  0.98456996  0.82150219    -0.59300
N534        N  0.51099023  0.97551143  0.79471572    -0.05500
N535        N  0.49859348  0.95435540  0.82285204    -0.58300
N536        N  0.54430673  0.99247709  0.71160273    -0.03200
N537        N  0.55533572  0.98275841  0.68500254    -0.59300
Mn538      Mn  0.57601519  0.03210742  0.75224389     1.18400
C539        C  0.52578659  0.95797514  0.66784344     0.99000
C540        C  0.52743049  0.96022535  0.83926620     0.99600
N541        N  0.55439387  0.12032329  0.71016385    -0.05500
N542        N  0.56755467  0.14132502  0.68206735    -0.61800
N543        N  0.52105261  0.10305893  0.79319314    -0.04300
N544        N  0.51048897  0.11209313  0.82094550    -0.62500
N545        N  0.55522401  0.12056183  0.79338737    -0.05000
N546        N  0.56857290  0.14173998  0.82138322    -0.62100
N547        N  0.52022899  0.10281513  0.71011188    -0.03900
N548        N  0.50950600  0.11176814  0.68204404    -0.62800
Mn549      Mn  0.58261866  0.11217052  0.75173601     1.10700
C550        C  0.53933784  0.13581196  0.66475817     1.00200
C551        C  0.54034677  0.13623825  0.83826601     1.00300
N552        N  0.45692835  0.99463237  0.79397365    -0.05000
N553        N  0.43859325  0.97514081  0.82177046    -0.60400
N554        N  0.45858491  0.02338750  0.71019865    -0.04400
N555        N  0.44186246  0.02429255  0.68185137    -0.57200
N556        N  0.45621756  0.99403987  0.71070401    -0.05700
N557        N  0.43774697  0.97441955  0.68287379    -0.60000
N558        N  0.45942602  0.02403765  0.79414226    -0.04700
N559        N  0.44304669  0.02524502  0.82235495    -0.57200
Mn560      Mn  0.48252856  0.98345525  0.75262547     1.20200
Mn561      Mn  0.48889580  0.06365390  0.75188816     1.10100
Cl562      Cl  0.53248305  0.04783690  0.75213111    -0.85100
C563        C  0.43006844  0.99447754  0.83925718     0.97200
C564        C  0.42887209  0.99350840  0.66500967     0.97000
C565        C  0.52954219  0.23678126  0.00125429     0.81000
N566        N  0.53369469  0.22478960  0.96987993    -0.77300
C567        C  0.54086780  0.20066621  0.96996154     0.83500
N568        N  0.54379508  0.18812488  0.00172927    -0.77200
C569        C  0.54591457  0.20398308  0.53206546     0.83600
N570        N  0.53671386  0.22660469  0.53122475    -0.78900
C571        C  0.76604315  0.18612525  0.50257526     0.81000
N572        N  0.75225773  0.16874739  0.96889575    -0.77300
C573        C  0.71761487  0.14350146  0.96903853     0.83500
N574        N  0.70107794  0.13024082  0.00104408    -0.77200
C575        C  0.71413261  0.14639338  0.53390449     0.83600
N576        N  0.74827174  0.17336028  0.53397064    -0.78900
N577        N  0.04511966  0.62017470  0.79060070    -0.05300
N578        N  0.04225205  0.63595664  0.81838527    -0.57400
N579        N  0.07668879  0.62582268  0.70805340    -0.05000
N580        N  0.09593644  0.64571456  0.68091641    -0.59500
N581        N  0.04572377  0.61999636  0.70686943    -0.04600
N582        N  0.04316926  0.63560579  0.67850947    -0.57400
N583        N  0.07592439  0.62561038  0.79069230    -0.04300
N584        N  0.09468936  0.64530527  0.81821095    -0.59900
C585        C  0.07352462  0.65167853  0.83526122     0.96900
C586        C  0.07480193  0.65167104  0.66271283     0.96700
N587        N  0.08860530  0.54447361  0.70886642    -0.05500
N588        N  0.10025976  0.53557037  0.68201937    -0.58000
N589        N  0.10288275  0.57823279  0.79197775    -0.03600
N590        N  0.12384315  0.59273197  0.82015787    -0.59300
N591        N  0.08858711  0.54456708  0.79138110    -0.05500
N592        N  0.09968967  0.53540365  0.81876068    -0.58300
N593        N  0.10322636  0.57822337  0.70847313    -0.03200
N594        N  0.12489233  0.59296463  0.68103652    -0.59300
Mn595      Mn  0.09084934  0.60298119  0.74985384     1.18400
C596        C  0.12282685  0.56601659  0.66490753     0.99000
C597        C  0.12155564  0.56563073  0.83642570     0.99600
N598        N  0.96911602  0.55324928  0.70678028    -0.05500
N599        N  0.95916977  0.56213736  0.67810249    -0.61800
N600        N  0.95406354  0.52029332  0.79047440    -0.04300
N601        N  0.93320591  0.50576458  0.81845573    -0.62500
N602        N  0.96838880  0.55396180  0.78976484    -0.05000
N603        N  0.95741645  0.56304724  0.81715109    -0.62100
N604        N  0.95444955  0.51949325  0.70701403    -0.03900
N605        N  0.93437259  0.50473247  0.67825131    -0.62800
Mn606      Mn  0.00655308  0.58761570  0.74845658     1.10700
C607        C  0.93751834  0.53169418  0.66056713     1.00200
C608        C  0.93550007  0.53272297  0.83478625     1.00300
N609        N  0.01215311  0.47866606  0.79209747    -0.05000
N610        N  0.01519960  0.46270746  0.81967155    -0.60400
N611        N  0.98075836  0.47205353  0.70962299    -0.04400
N612        N  0.96136987  0.45140027  0.68295382    -0.57200
N613        N  0.01161296  0.47770152  0.70926742    -0.05700
N614        N  0.01385243  0.46091522  0.68220719    -0.60000
N615        N  0.98127565  0.47306256  0.79199793    -0.04700
N616        N  0.96261558  0.45301591  0.81937054    -0.57200
Mn617      Mn  0.05070380  0.51066866  0.75028792     1.20200
Mn618      Mn  0.96638729  0.49523765  0.74986010     1.10100
Cl619      Cl  0.02862180  0.54912827  0.74960646    -0.85100
C620        C  0.98410150  0.44678404  0.83646430     0.97200
C621        C  0.98221964  0.44455733  0.66607881     0.97000
C622        C  0.22508057  0.55444426  0.99751996     0.81000
N623        N  0.21286248  0.55933259  0.96655749    -0.77300
C624        C  0.18898938  0.56690305  0.96720241     0.83500
N625        N  0.17719319  0.56965075  0.99948258    -0.77200
C626        C  0.18799415  0.56593192  0.53427231     0.83600
N627        N  0.21274402  0.55951037  0.53369266    -0.78900
C628        C  0.90696269  0.31060594  0.99636784     0.81000
N629        N  0.91937652  0.32822024  0.96467175    -0.77300
C630        C  0.94595753  0.36261317  0.96445373     0.83500
N631        N  0.95956489  0.37975735  0.99612231    -0.77200
C632        C  0.94210075  0.36752354  0.53389191     0.83600
N633        N  0.91487987  0.33367393  0.53348604    -0.78900
C634        C  0.82759365  0.53116288  0.99828065     0.81000
N635        N  0.84109870  0.52958617  0.96665169    -0.77300
C636        C  0.86528043  0.52238925  0.96622606     0.83500
N637        N  0.87618783  0.51680848  0.99780132    -0.77200
C638        C  0.86810493  0.52363378  0.52811881     0.83600
N639        N  0.84482998  0.53205835  0.52784709    -0.78900
C640        C  0.16234709  0.77665489  0.00235258     0.81000
N641        N  0.14689006  0.76109424  0.97050938    -0.77300
C642        C  0.11809040  0.72788390  0.96920069     0.83500
N643        N  0.10440038  0.70975295  0.00040729    -0.77200
C644        C  0.11942660  0.72714362  0.52781131     0.83600
N645        N  0.14789496  0.76053604  0.52668127    -0.78900
N646        N  0.49097283  0.46706336  0.70204022    -0.05300
N647        N  0.47355730  0.44575820  0.67479192    -0.57400
N648        N  0.52454476  0.47618958  0.78415190    -0.05000
N649        N  0.53111591  0.46242392  0.81119552    -0.59500
N650        N  0.49203841  0.46629713  0.78525340    -0.04600
N651        N  0.47587526  0.44575732  0.81323317    -0.57400
N652        N  0.52372509  0.47761155  0.70143199    -0.04300
N653        N  0.52914431  0.46351520  0.67399800    -0.59900
C654        C  0.49768540  0.44371795  0.65753506     0.96900
C655        C  0.50056056  0.44347625  0.82906217     0.96700
N656        N  0.60673440  0.58094645  0.78691533    -0.05500
N657        N  0.62541617  0.59593812  0.81652277    -0.58000
N658        N  0.59705649  0.55037470  0.70242485    -0.03600
N659        N  0.61161571  0.54516466  0.67529226    -0.59300
N660        N  0.60733665  0.58302437  0.70306713    -0.05500
N661        N  0.62868771  0.60059656  0.67599338    -0.58300
N662        N  0.59627922  0.54828393  0.78539493    -0.03200
N663        N  0.60761905  0.54043482  0.81368880    -0.59300
Mn664      Mn  0.56102508  0.51260737  0.74311887     1.18400
C665        C  0.62583904  0.57028745  0.83291586     0.99000
C666        C  0.63116744  0.57663506  0.65902604     0.99600
N667        N  0.45462376  0.50447181  0.78767647    -0.05500
N668        N  0.43367636  0.48820700  0.81552157    -0.61800
N669        N  0.46436290  0.53759436  0.70465823    -0.04300
N670        N  0.45028891  0.54430445  0.67814359    -0.62500
N671        N  0.45360279  0.50482564  0.70379048    -0.05000
N672        N  0.43217099  0.48856567  0.67621151    -0.62100
N673        N  0.46545121  0.53728458  0.78716790    -0.03900
N674        N  0.45213679  0.54400221  0.81420996    -0.62800
Mn675      Mn  0.47157754  0.48441479  0.74475623     1.10700
C676        C  0.43234678  0.51333297  0.83175133     1.00200
C677        C  0.43030835  0.51362125  0.66065676     1.00300
N678        N  0.56955485  0.62033294  0.70420774    -0.05000
N679        N  0.58611730  0.64169956  0.67683760    -0.60400
N680        N  0.53724404  0.60929348  0.78699760    -0.04400
N681        N  0.53110977  0.62340780  0.81377260    -0.57200
N682        N  0.56983077  0.61944381  0.78763586    -0.05700
N683        N  0.58655550  0.64054382  0.81523982    -0.60000
N684        N  0.53682700  0.60979680  0.70452180    -0.04700
N685        N  0.53050011  0.62395495  0.67768949    -0.57200
Mn686      Mn  0.58964454  0.60213091  0.74551713     1.20200
Mn687      Mn  0.50048343  0.57389389  0.74575786     1.10100
Cl688      Cl  0.53069617  0.54323922  0.74471418    -0.85100
C689        C  0.56141405  0.64379443  0.66063182     0.97200
C690        C  0.56200630  0.64280157  0.83116454     0.97000
C691        C  0.49801498  0.33970811  0.99803912     0.81000
N692        N  0.48314884  0.34186151  0.52714026    -0.77300
C693        C  0.47653971  0.36644748  0.52746610     0.83500
N694        N  0.47260091  0.37847151  0.49571290    -0.77200
C695        C  0.48983720  0.37753257  0.96478879     0.83600
N696        N  0.49638177  0.35292669  0.96616345    -0.78900
C697        C  0.32263088  0.51586764  0.99211481     0.81000
N698        N  0.33888596  0.51855192  0.52991956    -0.77300
C699        C  0.36257832  0.51074303  0.52947722     0.83500
N700        N  0.37366610  0.50679646  0.49727362    -0.77200
C701        C  0.35921466  0.50484500  0.96092058     0.83600
N702        N  0.33476209  0.51186432  0.96063631    -0.78900
C703        C  0.72909048  0.56854823  0.99985433     0.81000
N704        N  0.72611153  0.58129187  0.52653918    -0.77300
C705        C  0.70185572  0.58838840  0.52741153     0.83500
N706        N  0.68067271  0.58322120  0.00008412    -0.77200
C707        C  0.69263553  0.57976046  0.96826285     0.83600
N708        N  0.71660889  0.57226882  0.96836852    -0.78900
C709        C  0.56756963  0.75220068  0.99642720     0.81000
N710        N  0.57510107  0.74551106  0.52909431    -0.77300
C711        C  0.57618451  0.71726361  0.52959246     0.83500
N712        N  0.57581723  0.70246053  0.49803623    -0.77200
C713        C  0.57302021  0.71247710  0.96357096     0.83600
N714        N  0.56997199  0.73959574  0.96447509    -0.78900
C715        C  0.38216330  0.52832613  0.89932666     0.24400
C716        C  0.37511615  0.50433151  0.92672369    -0.23700
C717        C  0.38569393  0.48190292  0.92202844     0.19300
C718        C  0.40332501  0.48378553  0.89060877     0.24400
C719        C  0.41124694  0.50859440  0.86376801    -0.23600
C720        C  0.40020313  0.53061029  0.86842041     0.19300
F721        F  0.40707495  0.55475662  0.84306664    -0.13600
F722        F  0.37321369  0.55099613  0.90319646    -0.16000
F723        F  0.41389052  0.46240825  0.88719848    -0.16000
F724        F  0.37906481  0.45825533  0.94789741    -0.13600
C725        C  0.39534454  0.52835841  0.62577747     0.24400
C726        C  0.40957352  0.50908088  0.62854749    -0.23700
C727        C  0.40636769  0.48836024  0.59938894     0.19300
C728        C  0.39070064  0.48844910  0.56710062     0.24400
C729        C  0.37757565  0.50885566  0.56386595    -0.23600
C730        C  0.37956504  0.52832812  0.59385026     0.19300
F731        F  0.36773176  0.54877075  0.59197058    -0.13600
F732        F  0.39704295  0.54767451  0.65403801    -0.16000
F733        F  0.38858428  0.46877589  0.53902863    -0.16000
F734        F  0.41985629  0.46941251  0.60150515    -0.13600
C735        C  0.55250980  0.69602919  0.89966142     0.24400
C736        C  0.57275925  0.69721797  0.92862853    -0.23700
C737        C  0.59108642  0.68199011  0.92443043     0.19300
C738        C  0.58872167  0.66539896  0.89210427     0.24400
C739        C  0.56750223  0.66320381  0.86378699    -0.23600
C740        C  0.54969790  0.67892715  0.86768278     0.19300
F741        F  0.52936464  0.67760385  0.84051323    -0.13600
F742        F  0.53401738  0.70993479  0.90280700    -0.16000
F743        F  0.60577565  0.64998588  0.88917173    -0.16000
F744        F  0.61115778  0.68299081  0.95167392    -0.13600
C745        C  0.59254009  0.67193761  0.60275633     0.24400
C746        C  0.56697880  0.66462580  0.62813471    -0.23700
C747        C  0.54577518  0.67639122  0.62159977     0.19300
C748        C  0.54972303  0.69466704  0.59005395     0.24400
C749        C  0.57434941  0.70076357  0.56410994    -0.23600
C750        C  0.59584397  0.68944634  0.57071462     0.19300
F751        F  0.62011694  0.69548216  0.54617262    -0.13600
F752        F  0.61350128  0.66109555  0.60831385    -0.16000
F753        F  0.52837777  0.70505270  0.58414623    -0.16000
F754        F  0.52116198  0.67023556  0.64574581    -0.14800
C755        C  0.64716686  0.54719402  0.87851911     0.24400
C756        C  0.64313388  0.57353643  0.86780132    -0.23700
C757        C  0.65526042  0.60217487  0.89097037     0.19300
C758        C  0.67121430  0.60435091  0.92403596     0.24400
C759        C  0.67581372  0.57830931  0.93397391    -0.23600
C760        C  0.66351649  0.54973293  0.91104137     0.19300
F761        F  0.66643714  0.52354020  0.92066289    -0.13600
F762        F  0.63542221  0.51877576  0.85754231    -0.16000
F763        F  0.68277207  0.63214923  0.94594458    -0.16000
F764        F  0.65134062  0.62780332  0.88194157    -0.13600
C765        C  0.65215244  0.60232014  0.59745562     0.24400
C766        C  0.65252201  0.58355314  0.62687189    -0.23700
C767        C  0.67192673  0.56948604  0.62466282     0.19300
C768        C  0.68952151  0.57272828  0.59301701     0.24400
C769        C  0.68759639  0.58972510  0.56252768    -0.23600
C770        C  0.66933962  0.60520905  0.56540430     0.19300
F771        F  0.66747882  0.62253460  0.53703723    -0.13600
F772        F  0.63347300  0.61608899  0.59898644    -0.16000
F773        F  0.70687383  0.55750424  0.59187257    -0.16000
F774        F  0.67358852  0.55219741  0.65319212    -0.13600
C775        C  0.51316195  0.39560026  0.90218502     0.24400
C776        C  0.49105994  0.39308981  0.92955412    -0.23700
C777        C  0.47069475  0.40576509  0.92279568     0.19300
C778        C  0.47276922  0.42105538  0.88950077     0.24400
C779        C  0.49574991  0.42454889  0.86279058    -0.23600
C780        C  0.51557020  0.41130672  0.86926498     0.19300
F781        F  0.53725883  0.41339432  0.84359837    -0.13600
F782        F  0.53348457  0.38393428  0.90757554    -0.16000
F783        F  0.45320297  0.43351671  0.88388322    -0.16000
F784        F  0.44859080  0.40313375  0.94823960    -0.13600
C785        C  0.51357589  0.41314868  0.61601729     0.24400
C786        C  0.49078656  0.42236954  0.62503675    -0.23700
C787        C  0.46199338  0.41152285  0.60235772     0.19300
C788        C  0.45688976  0.39288539  0.57064479     0.24400
C789        C  0.48001764  0.38417709  0.56162428    -0.23600
C790        C  0.50809232  0.39406909  0.58482747     0.19300
F791        F  0.53123764  0.38652512  0.57653619    -0.13600
F792        F  0.54131884  0.42253707  0.63736895    -0.16000
F793        F  0.42925489  0.38310688  0.54893081    -0.16000
F794        F  0.43930897  0.41971402  0.61029607    -0.13600
C795        C  0.80794820  0.56576116  0.52378381     0.24400
C796        C  0.80198102  0.54022724  0.99845767    -0.23700
C797        C  0.79934262  0.55763372  0.96886077     0.19300
C798        C  0.77585988  0.56690336  0.96941070     0.24400
C799        C  0.75427722  0.55897571  0.99950059    -0.23600
C800        C  0.78518554  0.57590463  0.52317128     0.19300
F801        F  0.78745711  0.59670947  0.55009061    -0.13600
F802        F  0.83149925  0.57733790  0.55114727    -0.16000
F803        F  0.77490155  0.58436109  0.94060655    -0.16000
F804        F  0.82001705  0.56654311  0.93948205    -0.13600
C805        C  0.28802517  0.53485268  0.53294127     0.24400
C806        C  0.29670297  0.52451899  0.99253266    -0.23700
C807        C  0.29228251  0.54025075  0.96259988     0.19300
C808        C  0.26921891  0.55007844  0.96422000     0.24400
C809        C  0.24996815  0.54445947  0.99587102    -0.23600
C810        C  0.26285690  0.54181807  0.53374048     0.19300
F811        F  0.25140016  0.54409557  0.56646407    -0.13600
F812        F  0.30012013  0.53157510  0.56498661    -0.16000
F813        F  0.26643945  0.56580484  0.93486719    -0.16000
F814        F  0.31098463  0.54716762  0.93198212    -0.13600
C815        C  0.89357439  0.50082975  0.56897528     0.24400
C816        C  0.88487722  0.52451271  0.56228756    -0.23700
C817        C  0.89364362  0.55029595  0.58804798     0.19300
C818        C  0.91080627  0.55248057  0.61982756     0.24400
C819        C  0.91915540  0.52863849  0.62684287    -0.23600
C820        C  0.91029850  0.50264372  0.60124750     0.19300
F821        F  0.91873647  0.47971522  0.60692502    -0.13600
F822        F  0.88561059  0.47578503  0.54445595    -0.16000
F823        F  0.91894239  0.57785798  0.64396555    -0.16000
F824        F  0.88677872  0.57434838  0.58195807    -0.13600
C825        C  0.90814489  0.55301247  0.87498951     0.24400
C826        C  0.91698572  0.52958689  0.86809401    -0.23700
C827        C  0.90832819  0.50341938  0.89347864     0.19300
C828        C  0.89132081  0.50092207  0.92540385     0.24400
C829        C  0.88213779  0.52411977  0.93210094    -0.23600
C830        C  0.89065242  0.55015543  0.90659064     0.19300
F831        F  0.88322805  0.57372801  0.91281390    -0.13600
F832        F  0.91610138  0.57851668  0.85097153    -0.16000
F833        F  0.88357178  0.47564098  0.94962990    -0.16000
F834        F  0.91723609  0.48089120  0.88793820    -0.13600
C835        C  0.99669493  0.42248777  0.61277976     0.24400
C836        C  0.97192132  0.42329003  0.63318070    -0.23700
C837        C  0.93712236  0.40450288  0.62104740     0.19300
C838        C  0.92755299  0.38606811  0.58879844     0.24400
C839        C  0.95256854  0.38643595  0.56795765    -0.23600
C840        C  0.98707216  0.40446118  0.58007618     0.19300
F841        F  0.01120621  0.40402838  0.56054125    -0.13600
F842        F  0.03024907  0.43942788  0.62410134    -0.16000
F843        F  0.89395104  0.36860521  0.57736294    -0.16000
F844        F  0.91220808  0.40395145  0.64018620    -0.13600
C845        C  0.93925424  0.40050587  0.87774315     0.24400
C846        C  0.97451944  0.42478010  0.86892908    -0.23700
C847        C  0.00042403  0.42780947  0.89150552     0.19300
C848        C  0.99115460  0.40718280  0.92246313     0.24400
C849        C  0.95594684  0.38261047  0.93074030    -0.23600
C850        C  0.93008505  0.37939177  0.90818709     0.19300
F851        F  0.89587265  0.35688990  0.91656809    -0.13600
F852        F  0.91350779  0.39705553  0.85692423    -0.16000
F853        F  0.01653987  0.41116419  0.94437677    -0.16000
F854        F  0.03472250  0.45136895  0.88425037    -0.13600
C855        C  0.16566305  0.59257102  0.57316079     0.24400
C856        C  0.17510447  0.56923505  0.56906289    -0.23700
C857        C  0.16989164  0.54711280  0.59785638     0.19300
C858        C  0.15357199  0.54678356  0.62931298     0.24400
C859        C  0.14278593  0.56902068  0.63289334    -0.23600
C860        C  0.14989161  0.59271616  0.60507004     0.19300
F861        F  0.14010363  0.61479356  0.60802468    -0.13600
F862        F  0.17158068  0.61507166  0.54622851    -0.16000
F863        F  0.14811487  0.52447868  0.65627953    -0.16000
F864        F  0.17891346  0.52441968  0.59491059    -0.13600
C865        C  0.15647316  0.55044224  0.87066632     0.24400
C866        C  0.14070158  0.56827010  0.86902529    -0.23700
C867        C  0.14191303  0.58694077  0.89915340     0.19300
C868        C  0.15804484  0.58701964  0.93108618     0.24400
C869        C  0.17370177  0.56885144  0.93300596    -0.23600
C870        C  0.17314622  0.55098182  0.90216144     0.19300
F871        F  0.18752598  0.53280195  0.90266750    -0.13600
F872        F  0.15577470  0.53245644  0.84160553    -0.16000
F873        F  0.15817146  0.60473984  0.96005446    -0.16000
F874        F  0.12606286  0.60370691  0.89818142    -0.13600
C875        C  0.06128532  0.66247693  0.60072717     0.24400
C876        C  0.08514672  0.67225137  0.62918576    -0.23700
C877        C  0.11985702  0.70079177  0.62464792     0.19300
C878        C  0.13077852  0.71894410  0.59201479     0.24400
C879        C  0.10720577  0.70871129  0.56295150    -0.23600
C880        C  0.07227255  0.68032452  0.56775195     0.19300
F881        F  0.04867091  0.66979089  0.54059322    -0.13600
F882        F  0.02765741  0.63474100  0.60429753    -0.16000
F883        F  0.16483680  0.74576745  0.58862287    -0.16000
F884        F  0.14334002  0.71125735  0.65196670    -0.13600
C885        C  0.05912319  0.66762476  0.89385010     0.24400
C886        C  0.08387135  0.67295425  0.86832336    -0.23700
C887        C  0.11941744  0.69787985  0.87542623     0.19300
C888        C  0.13016872  0.71641932  0.90769223     0.24400
C889        C  0.10567367  0.71018317  0.93394531    -0.23600
C890        C  0.07001400  0.68583888  0.92669102     0.19300
F891        F  0.04580750  0.67969959  0.95136627    -0.13600
F892        F  0.02457800  0.64387405  0.88770193    -0.16000
F893        F  0.16485731  0.73926905  0.91392597    -0.16000
F894        F  0.14405272  0.70422880  0.85120020    -0.13600
C895        C  0.85833689  0.25633220  0.96512200     0.24400
C896        C  0.87515687  0.27429250  0.99728380    -0.23700
C897        C  0.85373608  0.26351715  0.53494393     0.19300
C898        C  0.82061132  0.23239867  0.53513208     0.24400
C899        C  0.80802296  0.21079694  0.99928962    -0.23600
C900        C  0.82530439  0.22494853  0.96610072     0.19300
F901        F  0.80998298  0.20921313  0.93419007    -0.13600
F902        F  0.87312344  0.26954679  0.93239834    -0.16000
F903        F  0.80579922  0.21818778  0.56760099    -0.16000
F904        F  0.86926688  0.27762064  0.56730460    -0.13600
C905        C  0.51502917  0.27362123  0.96759888     0.24400
C906        C  0.52192769  0.26346246  0.00058617    -0.23700
C907        C  0.50696765  0.26650844  0.52922269     0.19300
C908        C  0.49419331  0.28702575  0.52791823     0.24400
C909        C  0.50647056  0.31366946  0.99900305    -0.23600
C910        C  0.50752915  0.29836678  0.96682038     0.19300
F911        F  0.50107323  0.30696780  0.93420294    -0.13600
F912        F  0.51515769  0.25953568  0.93568076    -0.16000
F913        F  0.47945069  0.28938573  0.55817444    -0.16000
F914        F  0.50412876  0.25026019  0.56079839    -0.13600
C915        C  0.67138363  0.09899358  0.57543143     0.24400
C916        C  0.69487936  0.13463555  0.56806488    -0.23700
C917        C  0.69947720  0.15922597  0.59335558     0.19300
C918        C  0.68015357  0.14833654  0.62512902     0.24400
C919        C  0.65640405  0.11264338  0.63249000    -0.23600
C920        C  0.65253524  0.08803068  0.60762212     0.19300
F921        F  0.62982375  0.05338568  0.61394349    -0.13600
F922        F  0.66709569  0.07482292  0.55168295    -0.16000
F923        F  0.68497264  0.17278166  0.64884144    -0.16000
F924        F  0.72188843  0.19388407  0.58678967    -0.13600
C925        C  0.64903773  0.08850358  0.89810047     0.24400
C926        C  0.65908965  0.11271401  0.87007230    -0.23700
C927        C  0.68882047  0.14681421  0.87426845     0.19300
C928        C  0.70826461  0.15665359  0.90620345     0.24400
C929        C  0.69782446  0.13262968  0.93475130    -0.23600
C930        C  0.66798908  0.09846896  0.93036745     0.19300
F931        F  0.65734337  0.07456204  0.95712577    -0.13600
F932        F  0.62018014  0.05542448  0.89464796    -0.16000
F933        F  0.73671324  0.18999424  0.90949117    -0.16000
F934        F  0.69941485  0.17042714  0.84718017    -0.13600
C935        C  0.51421267  0.15700098  0.62135738     0.24400
C936        C  0.54105484  0.15337340  0.63084312    -0.23700
C937        C  0.56972351  0.16679674  0.60758805     0.19300
C938        C  0.57142137  0.18340863  0.57543374     0.24400
C939        C  0.54486327  0.18746007  0.56634219    -0.23600
C940        C  0.51631351  0.17424792  0.58957754     0.19300
F941        F  0.48982769  0.17702428  0.58089912    -0.13600
F942        F  0.48607770  0.14422435  0.64297860    -0.16000
F943        F  0.59926842  0.19599129  0.55341988    -0.16000
F944        F  0.59575680  0.16312058  0.61548382    -0.13600
C945        C  0.56953660  0.16741605  0.89606754     0.24400
C946        C  0.54163621  0.15410010  0.87144607    -0.23700
C947        C  0.51432916  0.15737305  0.87909812     0.19300
C948        C  0.51474657  0.17344371  0.91081157     0.24400
C949        C  0.54203889  0.18581938  0.93578558    -0.23600
C950        C  0.56946272  0.18278695  0.92831308     0.19300
F951        F  0.59627881  0.19505079  0.95205505    -0.13600
F952        F  0.59631941  0.16468626  0.88948895    -0.16000
F953        F  0.48776733  0.17578700  0.91775512    -0.16000
F954        F  0.48723920  0.14522691  0.85576728    -0.13600
C955        C  0.24679702  0.85896738  0.97039988     0.24400
C956        C  0.26343183  0.87557063  0.00320340    -0.23700
C957        C  0.24104952  0.86366745  0.52816540     0.19300
C958        C  0.20787479  0.83230865  0.52712358     0.24400
C959        C  0.19591029  0.81193715  0.00267118    -0.23600
C960        C  0.21367153  0.82775579  0.97012849     0.19300
F961        F  0.19969369  0.81271352  0.93760466    -0.13600
F962        F  0.26272054  0.87225686  0.93814403    -0.16000
F963        F  0.18937965  0.82068162  0.55825619    -0.16000
F964        F  0.25305026  0.88067676  0.56019992    -0.13600
C965        C  0.40844521  0.00651264  0.60818123     0.24400
C966        C  0.40805940  0.98219663  0.63107341    -0.23700
C967        C  0.38789017  0.94683121  0.62089579     0.19300
C968        C  0.36813555  0.93599532  0.58904111     0.24400
C969        C  0.36859743  0.96027533  0.56631088    -0.23600
C970        C  0.38921459  0.99565812  0.57588365     0.19300
F971        F  0.39051632  0.01969517  0.55403750    -0.13600
F972        F  0.42811134  0.04093591  0.61649737    -0.16000
F973        F  0.34961626  0.90185613  0.57962558    -0.16000
F974        F  0.38716146  0.92255216  0.64174725    -0.13600
C975        C  0.36484906  0.93625330  0.91068987     0.24400
C976        C  0.37106282  0.96035545  0.93751336    -0.23700
C977        C  0.39662932  0.99599796  0.93167577     0.19300
C978        C  0.41534840  0.00735400  0.89931141     0.24400
C979        C  0.40934233  0.98313123  0.87269827    -0.23600
C980        C  0.38393153  0.94751268  0.87872162     0.19300
F981        F  0.37726711  0.92347928  0.85345589    -0.13600
F982        F  0.34119713  0.90156096  0.91595885    -0.16000
F983        F  0.44011731  0.04187595  0.89454962    -0.16000
F984        F  0.40331309  0.01984285  0.95719257    -0.13600
C985        C  0.56273424  0.79747684  0.96584451     0.24400
C986        C  0.56288469  0.78101485  0.99770355    -0.23700
C987        C  0.58142164  0.81112841  0.52793507     0.19300
C988        C  0.57521294  0.83692942  0.52948360     0.24400
C989        C  0.55864563  0.84153626  0.50055685    -0.23600
C990        C  0.55674446  0.82340928  0.96714768     0.19300
F991        F  0.55666378  0.83809203  0.93550125    -0.13600
F992        F  0.56808188  0.78846338  0.93307463    -0.16000
F993        F  0.58574648  0.85756490  0.55920258    -0.16000
F994        F  0.59770404  0.80772530  0.55635382    -0.13600
C995        C  0.55056747  0.93262983  0.63182357     0.24400
C996        C  0.52552324  0.93985853  0.63548059    -0.23700
C997        C  0.50212740  0.93186923  0.60704231     0.19300
C998        C  0.50466829  0.91808881  0.57479585     0.24400
C999        C  0.53018240  0.91141656  0.57085691    -0.23600
C1000       C  0.55274458  0.91831733  0.59990082     0.19300
F1001       F  0.57813210  0.91293294  0.59680154    -0.13600
F1002       F  0.57318014  0.93968251  0.65916860    -0.16000
F1003       F  0.48235116  0.91153584  0.54732422    -0.16000
F1004       F  0.47800209  0.93904934  0.60976536    -0.13600
C1005       C  0.55656560  0.92558658  0.91245581     0.24400
C1006       C  0.52949322  0.91245279  0.93760911    -0.23700
C1007       C  0.50121173  0.91424728  0.92995904     0.19300
C1008       C  0.49998003  0.92896840  0.89753109     0.24400
C1009       C  0.52748536  0.94289134  0.87266697    -0.23600
C1010       C  0.55575673  0.94095516  0.88045312     0.19300
F1011       F  0.58252753  0.95355945  0.85690171    -0.13600
F1012       F  0.58433517  0.92437897  0.91931123    -0.16000
F1013       F  0.47225794  0.93026708  0.89088893    -0.16000
F1014       F  0.47442586  0.90106234  0.95356945    -0.13600
loop_ 
_geom_bond_atom_site_label_1 
_geom_bond_atom_site_label_2 
_geom_bond_distance 
_geom_bond_site_symmetry_2 
_ccdc_geom_bond_type 
C1            N6   1.359       .  A
C1          N509   1.357   1_554  A
C1          C482   1.491       .  S
N2            C3   1.353       .  A
N2          C508   1.353       .  A
C3            N4   1.354       .  A
C3          C499   1.467       .  S
N4          C512   1.358       .  A
C5            N6   1.358       .  A
C5          N511   1.359       .  A
C5          C492   1.478       .  S
C7            N8   1.356       .  A
C7          N519   1.362       .  A
C7          C449   1.494       .  S
N8            C9   1.356       .  A
C9           N10   1.357       .  A
C9          C469   1.472       .  S
N10         C518   1.358       .  A
C11          N12   1.358       .  A
C11         N517   1.357       .  A
C11         C462   1.470       .  S
N12         C514   1.357       .  A
N13          N14   1.316       .  A
N13          N19   1.315       .  A
N13         Mn42   2.185       .  S
N14          C21   1.351       .  A
N15          N17   1.316       .  A
N15          N16   1.320       .  A
N15         Mn31   2.200       .  S
N16          C22   1.352       .  A
N17          N18   1.320       .  A
N17         Mn42   2.206       .  S
N18          C22   1.354       .  A
N19          N20   1.321       .  A
N19         Mn31   2.198       .  S
N20          C21   1.353       .  A
C21         C419   1.470       .  S
C22         C412   1.474       .  S
N23          N29   1.315       .  A
N23          N24   1.323       .  A
N23         Mn53   2.209       .  S
N24          C32   1.355       .  A
N25          N26   1.314       .  A
N25          N27   1.315       .  A
N25         Mn31   2.183   1_565  S
N26          C33   1.350       .  A
N27          N28   1.321       .  A
N27         Mn53   2.195       .  S
N28          C33   1.354       .  A
N29          N30   1.317       .  A
N29         Mn31   2.192   1_565  S
N30          C32   1.351       .  A
Mn31        Cl55   2.539       .  S
C32         C489   1.476       .  S
C33         C502   1.470       .  S
N34          N35   1.320       .  A
N34          N40   1.315       .  A
N34         Mn42   2.203       .  S
N35          C43   1.355       .  A
N36          N38   1.316       .  A
N36          N37   1.318       .  A
N36         Mn54   2.193       .  S
N37          C44   1.351       .  A
N38          N39   1.322       .  A
N38         Mn42   2.211       .  S
N39          C44   1.354       .  A
N40          N41   1.316       .  A
N40         Mn54   2.180       .  S
N41          C43   1.350       .  A
Mn42        Cl55   2.547       .  S
C43         C429   1.472       .  S
C44         C439   1.472       .  S
N45          N46   1.317       .  A
N45          N51   1.315   1_565  A
N45         Mn53   2.196       .  S
N46          C56   1.353       .  A
N47          N48   1.321       .  A
N47          N49   1.316   1_545  A
N47         Mn54   2.202       .  S
N48          C57   1.354   1_545  A
N49          N50   1.315       .  A
N49         Mn53   2.182       .  S
N50          C57   1.350       .  A
N51          N52   1.320       .  A
N51         Mn54   2.193       .  S
N52          C56   1.353   1_545  A
Mn53        Cl55   2.546   1_565  S
Mn54        Cl55   2.544       .  S
C56         C472   1.475       .  S
C57         C459   1.471       .  S
C58          N59   1.358       .  A
C58         N570   1.357       .  A
C58         C399   1.489       .  S
N59          C60   1.359       .  A
C60          N61   1.358       .  A
C60         C442   1.481       .  S
N61         C569   1.357       .  A
C62          N63   1.358       .  A
C62         N568   1.356       .  A
C62         C432   1.468       .  S
N63         C565   1.359       .  A
C64          N69   1.359       .  A
C64         N572   1.355   1_554  A
C64         C899   1.488   1_554  S
N65          C66   1.354       .  A
N65         C571   1.353       .  A
C66          N67   1.358       .  A
C66         C422   1.471       .  S
N67         C575   1.359       .  A
C68          N69   1.359       .  A
C68         N574   1.359       .  A
C68         C409   1.480       .  S
N70          N71   1.321       .  A
N70          N76   1.316       .  A
N70         Mn99   2.200       .  S
N71          C78   1.352       .  A
N72          N74   1.315       .  A
N72          N73   1.315       .  A
N72         Mn88   2.186       .  S
N73          C79   1.350       .  A
N74          N75   1.323       .  A
N74         Mn99   2.209       .  S
N75          C79   1.357       .  A
N76          N77   1.320       .  A
N76         Mn88   2.209       .  S
N77          C78   1.354       .  A
C78         C379   1.474       .  S
C79         C369   1.481       .  S
N80          N86   1.316       .  A
N80          N81   1.318       .  A
N80        Mn110   2.195       .  S
N81          C89   1.352       .  A
N82          N83   1.319       .  A
N82          N84   1.316       .  A
N82         Mn88   2.201       .  S
N83          C90   1.353       .  A
N84          N85   1.317       .  A
N84        Mn110   2.188       .  S
N85          C90   1.351       .  A
N86          N87   1.322       .  A
N86         Mn88   2.209       .  S
N87          C89   1.354       .  A
Mn88       Cl112   2.543       .  S
C89         C352   1.477       .  S
C90         C359   1.473       .  S
N91          N92   1.316       .  A
N91          N97   1.315       .  A
N91         Mn99   2.192   1_655  S
N92         C100   1.352       .  A
N93          N95   1.315       .  A
N93          N94   1.322       .  A
N93        Mn111   2.204       .  S
N94         C101   1.356       .  A
N95          N96   1.315       .  A
N95         Mn99   2.189   1_655  S
N96         C101   1.350       .  A
N97          N98   1.321       .  A
N97        Mn111   2.205       .  S
N98         C100   1.355       .  A
Mn99       Cl112   2.542       .  S
C100        C312   1.482       .  S
C101        C319   1.477       .  S
N102        N103   1.320       .  A
N102        N108   1.317   1_455  A
N102       Mn110   2.196       .  S
N103        C113   1.351   1_455  A
N104        N105   1.317       .  A
N104        N106   1.315   1_655  A
N104       Mn111   2.189       .  S
N105        C114   1.352       .  A
N106        N107   1.317       .  A
N106       Mn110   2.184       .  S
N107        C114   1.351   1_455  A
N108        N109   1.318       .  A
N108       Mn111   2.196       .  S
N109        C113   1.351       .  A
Mn110      Cl112   2.549       .  S
Mn111      Cl112   2.545   1_655  S
C113        C339   1.463       .  S
C114        C329   1.468       .  S
C115        N116   1.354       .  A
C115        N627   1.357       .  A
C115        C302   1.485       .  S
N116        C117   1.354       .  A
C117        N118   1.358       .  A
C117        C362   1.472       .  S
N118        C626   1.359       .  A
C119        N120   1.361       .  A
C119        N625   1.358   1_554  A
C119        C349   1.481       .  S
N120        C622   1.360   1_554  A
C121        N122   1.358       .  A
C121        N633   1.353       .  A
C121        C389   1.483       .  S
N122        C123   1.357       .  A
C123        N124   1.356       .  A
C123        C342   1.465       .  S
N124        C632   1.354       .  A
C125        N126   1.352       .  A
C125        N631   1.353   1_554  A
C125        C332   1.462       .  S
N126        C628   1.354   1_554  A
C127        N128   1.357       .  A
C127        N639   1.357       .  A
C127        C289   1.481       .  S
N128        C129   1.357       .  A
C129        N130   1.357       .  A
C129        C322   1.469       .  S
N130        C638   1.357       .  A
C131        N132   1.359       .  A
C131        N637   1.355   1_554  A
C131        C309   1.468       .  S
N132        C634   1.360   1_554  A
C133        N134   1.361       .  A
C133        N645   1.356       .  A
C133        C452   1.494       .  S
N134        C135   1.363       .  A
C135        N136   1.360       .  A
C135        C382   1.493       .  S
N136        C644   1.359       .  A
C137        N138   1.361       .  A
C137        N643   1.360       .  A
C137        C372   1.477       .  S
N138        C640   1.358       .  A
N139        N140   1.324       .  A
N139        N145   1.316       .  A
N139       Mn168   2.211       .  S
N140        C147   1.357       .  A
N141        N143   1.316       .  A
N141        N142   1.315       .  A
N141       Mn157   2.186       .  S
N142        C148   1.350       .  A
N143        N144   1.323       .  A
N143       Mn168   2.211       .  S
N144        C148   1.356       .  A
N145        N146   1.313       .  A
N145       Mn157   2.181       .  S
N146        C147   1.349       .  A
C147        C279   1.474       .  S
C148        C272   1.477       .  S
N149        N155   1.315       .  A
N149        N150   1.320       .  A
N149       Mn179   2.201       .  S
N150        C158   1.355       .  A
N151        N152   1.316       .  A
N151        N153   1.315       .  A
N151       Mn157   2.191       .  S
N152        C159   1.351       .  A
N153        N154   1.322       .  A
N153       Mn179   2.208       .  S
N154        C159   1.356       .  A
N155        N156   1.315       .  A
N155       Mn157   2.186       .  S
N156        C158   1.351       .  A
Mn157      Cl181   2.530       .  S
C158        C249   1.478       .  S
C159        C259   1.479       .  S
N160        N161   1.322       .  A
N160        N166   1.316       .  A
N160       Mn168   2.206       .  S
N161        C169   1.355       .  A
N162        N164   1.316       .  A
N162        N163   1.315       .  A
N162       Mn180   2.188       .  S
N163        C170   1.350       .  A
N164        N165   1.322       .  A
N164       Mn168   2.208       .  S
N165        C170   1.356       .  A
N166        N167   1.314       .  A
N166       Mn180   2.181       .  S
N167        C169   1.349       .  A
Mn168      Cl181   2.558       .  S
C169        C212   1.470       .  S
C170        C219   1.478       .  S
N171        N172   1.321       .  A
N171        N177   1.316       .  A
N171       Mn179   2.205       .  S
N172        C182   1.356       .  A
N173        N174   1.318       .  A
N173        N175   1.316       .  A
N173       Mn180   2.195       .  S
N174        C183   1.352       .  A
N175        N176   1.322       .  A
N175       Mn179   2.210       .  S
N176        C183   1.355       .  A
N177        N178   1.314       .  A
N177       Mn180   2.182       .  S
N178        C182   1.350       .  A
Mn179      Cl181   2.556       .  S
Mn180      Cl181   2.534       .  S
C182        C239   1.475       .  S
C183        C232   1.476       .  S
C184        N189   1.357       .  A
C184        N692   1.355       .  A
C184        C402   1.487       .  S
N185        C186   1.357       .  A
N185        C691   1.354   1_554  A
C186        N187   1.361   1_554  A
C186        C282   1.477       .  S
N187        C695   1.361       .  A
C188        N189   1.359       .  A
C188        N694   1.360       .  A
C188        C269   1.479       .  S
C190        N195   1.354       .  A
C190        N698   1.354       .  A
C190        C299   1.486       .  S
N191        C192   1.354       .  A
N191        C697   1.354   1_554  A
C192        N193   1.358   1_554  A
C192        C222   1.472       .  S
N193        C701   1.360       .  A
C194        N195   1.356       .  A
C194        N700   1.359       .  A
C194        C209   1.475       .  S
C196        N201   1.356       .  A
C196        N704   1.356       .  A
C196        C292   1.482       .  S
N197        C198   1.359       .  A
N197        C703   1.357   1_554  A
C198        N706   1.360       .  A
C198        C262   1.476       .  S
N199        C200   1.358       .  A
N199        C705   1.359       .  A
C200        N201   1.357       .  A
C200        C252   1.469       .  S
C202        N207   1.361       .  A
C202        N710   1.356       .  A
C202        C479   1.485       .  S
N203        C204   1.354       .  A
N203        C709   1.354   1_554  A
C204        N205   1.357   1_554  A
C204        C242   1.471       .  S
N205        C713   1.360       .  A
C206        N207   1.361       .  A
C206        N712   1.357       .  A
C206        C229   1.482       .  S
C208        C209   1.407       .  A
C208        C213   1.391       .  A
C208        F215   1.358       .  S
C209        C210   1.408       .  A
C210        C211   1.400       .  A
C210        F217   1.358       .  S
C211        C212   1.405       .  A
C211        F216   1.357       .  S
C212        C213   1.404       .  A
C213        F214   1.359       .  S
C218        C219   1.408       .  A
C218        C223   1.393       .  A
C218        F225   1.358       .  S
C219        C220   1.409       .  A
C220        C221   1.401       .  A
C220        F227   1.357       .  S
C221        C222   1.404       .  A
C221        F226   1.358       .  S
C222        C223   1.405       .  A
C223        F224   1.359       .  S
C228        C229   1.408       .  A
C228        C233   1.397       .  A
C228        F235   1.357       .  S
C229        C230   1.410       .  A
C230        C231   1.401       .  A
C230        F237   1.358       .  S
C231        C232   1.405       .  A
C231        F236   1.358       .  S
C232        C233   1.405       .  A
C233        F234   1.358       .  S
C238        C239   1.408       .  A
C238        C243   1.401       .  A
C238        F245   1.356       .  S
C239        C240   1.407       .  A
C240        C241   1.392       .  A
C240        F247   1.358       .  S
C241        C242   1.405       .  A
C241        F246   1.359       .  S
C242        C243   1.405       .  A
C243        F244   1.358       .  S
C248        C249   1.409       .  A
C248        C253   1.393       .  A
C248        F255   1.358       .  S
C249        C250   1.409       .  A
C250        C251   1.400       .  A
C250        F257   1.357       .  S
C251        C252   1.404       .  A
C251        F256   1.358       .  S
C252        C253   1.403       .  A
C253        F254   1.358       .  S
C258        C259   1.407       .  A
C258        C263   1.402       .  A
C258        F265   1.356       .  S
C259        C260   1.407       .  A
C260        C261   1.394       .  A
C260        F267   1.358       .  S
C261        C262   1.406       .  A
C261        F266   1.358       .  S
C262        C263   1.406       .  A
C263        F264   1.358       .  S
C268        C269   1.407       .  A
C268        C273   1.393       .  A
C268        F275   1.358       .  S
C269        C270   1.408       .  A
C270        C271   1.403       .  A
C270        F277   1.358       .  S
C271        C272   1.407       .  A
C271        F276   1.357       .  S
C272        C273   1.406       .  A
C273        F274   1.358       .  S
C278        C279   1.405       .  A
C278        C283   1.390       .  A
C278        F285   1.359       .  S
C279        C280   1.407       .  A
C280        C281   1.404       .  A
C280        F287   1.357       .  S
C281        C282   1.408       .  A
C281        F286   1.358       .  S
C282        C283   1.406       .  A
C283        F284   1.358       .  S
C288        C293   1.399       .  A
C288        C796   1.409   1_554  A
C288        F295   1.358       .  S
C289        C290   1.407       .  A
C289        C795   1.408       .  A
C290        C291   1.397       .  A
C290        F297   1.358       .  S
C291        C292   1.409       .  A
C291        F296   1.358       .  S
C292        C800   1.408       .  A
C293        C799   1.409   1_554  A
C293        F294   1.357       .  S
C298        C303   1.396       .  A
C298        C806   1.410   1_554  A
C298        F305   1.358       .  S
C299        C300   1.410       .  A
C299        C805   1.411       .  A
C300        C301   1.394       .  A
C300        F307   1.358       .  S
C301        C302   1.410       .  A
C301        F306   1.358       .  S
C302        C810   1.409       .  A
C303        C809   1.407   1_554  A
C303        F304   1.357       .  S
C308        C309   1.404       .  A
C308        C313   1.403       .  A
C308        F315   1.358       .  S
C309        C310   1.400       .  A
C310        C311   1.393       .  A
C310        F317   1.358       .  S
C311        C312   1.410       .  A
C311        F316   1.357       .  S
C312        C313   1.411       .  A
C313        F314   1.358       .  S
C318        C319   1.408       .  A
C318        C323   1.392       .  A
C318        F325   1.358       .  S
C319        C320   1.408       .  A
C320        C321   1.401       .  A
C320        F327   1.357       .  S
C321        C322   1.405       .  A
C321        F326   1.358       .  S
C322        C323   1.403       .  A
C323        F324   1.359       .  S
C328        C329   1.408       .  A
C328        C333   1.396       .  A
C328        F335   1.358   1_655  S
C329        C330   1.405       .  A
C330        C331   1.391       .  A
C330        F337   1.358       .  S
C331        C332   1.405       .  A
C331        F336   1.359       .  S
C332        C333   1.401       .  A
C333        F334   1.358   1_655  S
C338        C339   1.402       .  A
C338        C343   1.393       .  A
C338        F345   1.358       .  S
C339        C340   1.404       .  A
C340        C341   1.399       .  A
C340        F347   1.358       .  S
C341        C342   1.404       .  A
C341        F346   1.358       .  S
C342        C343   1.404       .  A
C343        F344   1.358       .  S
C348        C349   1.409       .  A
C348        C353   1.402       .  A
C348        F355   1.358       .  S
C349        C350   1.407       .  A
C350        C351   1.397       .  A
C350        F357   1.357       .  S
C351        C352   1.405       .  A
C351        F356   1.358       .  S
C352        C353   1.406       .  A
C353        F354   1.358       .  S
C358        C359   1.406       .  A
C358        C363   1.395       .  A
C358        F365   1.358       .  S
C359        C360   1.407       .  A
C360        C361   1.397       .  A
C360        F367   1.358       .  S
C361        C362   1.404       .  A
C361        F366   1.358       .  S
C362        C363   1.407       .  A
C363        F364   1.359       .  S
C368        C369   1.408       .  A
C368        C373   1.403       .  A
C368        F375   1.358       .  S
C369        C370   1.408       .  A
C370        C371   1.394       .  A
C370        F377   1.358       .  S
C371        C372   1.405       .  A
C371        F376   1.358       .  S
C372        C373   1.407       .  A
C373        F374   1.358       .  S
C378        C379   1.404       .  A
C378        C383   1.403       .  A
C378        F385   1.358       .  S
C379        C380   1.400       .  A
C380        C381   1.396       .  A
C380        F387   1.358       .  S
C381        C382   1.412       .  A
C381        F386   1.356       .  S
C382        C383   1.415       .  A
C383        F384   1.358       .  S
C388        C389   1.407       .  A
C388        C393   1.393       .  A
C388        F395   1.358       .  S
C389        C897   1.412       .  A
C390        C391   1.394       .  A
C390        C896   1.412   1_554  A
C390        F397   1.358       .  S
C391        C899   1.408   1_554  A
C391        F396   1.358       .  S
C392        C571   1.483       .  S
C392        C393   1.411       .  A
C392        C898   1.408       .  A
C393        F394   1.358       .  S
C398        C399   1.410       .  A
C398        C403   1.397       .  A
C398        F405   1.358       .  S
C399        C907   1.411       .  A
C400        C401   1.397       .  A
C400        C906   1.409       .  A
C400        F407   1.358       .  S
C401        C909   1.410   1_554  A
C401        F406   1.357       .  S
C402        C403   1.410       .  A
C402        C908   1.409       .  A
C403        F404   1.357       .  S
C408        C409   1.408       .  A
C408        C413   1.399       .  A
C408        F415   1.358       .  S
C409        C410   1.409       .  A
C410        C411   1.398       .  A
C410        F417   1.358       .  S
C411        C412   1.404       .  A
C411        F416   1.358       .  S
C412        C413   1.405       .  A
C413        F414   1.358       .  S
C418        C419   1.407       .  A
C418        C423   1.399       .  A
C418        F425   1.358       .  S
C419        C420   1.404       .  A
C420        C421   1.392       .  A
C420        F427   1.358       .  S
C421        C422   1.407       .  A
C421        F426   1.359       .  S
C422        C423   1.405       .  A
C423        F424   1.358       .  S
C428        C429   1.408       .  A
C428        C433   1.395       .  A
C428        F435   1.358       .  S
C429        C430   1.406       .  A
C430        C431   1.396       .  A
C430        F437   1.358       .  S
C431        C432   1.404       .  A
C431        F436   1.358       .  S
C432        C433   1.404       .  A
C433        F434   1.358       .  S
C438        C439   1.405       .  A
C438        C443   1.401       .  A
C438        F445   1.358       .  S
C439        C440   1.403       .  A
C440        C441   1.395       .  A
C440        F447   1.358       .  S
C441        C442   1.409       .  A
C441        F446   1.358       .  S
C442        C443   1.410       .  A
C443        F444   1.358       .  S
C448        C449   1.414       .  A
C448        C453   1.399       .  A
C448        F455   1.358       .  S
C449        C957   1.408       .  A
C450        C451   1.401       .  A
C450        C956   1.412       .  A
C450        F457   1.358       .  S
C451        C959   1.410       .  A
C451        F456   1.358       .  S
C452        C453   1.409       .  A
C452        C958   1.413       .  A
C453        F454   1.356       .  S
C458        C459   1.406   1_545  A
C458        C463   1.399   1_545  A
C458        F465   1.358       .  S
C459        C460   1.406       .  A
C460        C461   1.392       .  A
C460        F467   1.358       .  S
C461        C462   1.404       .  A
C461        F466   1.358       .  S
C462        C463   1.406       .  A
C463        F464   1.358   1_565  S
C468        C469   1.405       .  A
C468        C473   1.393       .  A
C468        F475   1.358       .  S
C469        C470   1.405       .  A
C470        C471   1.401   1_565  A
C470        F477   1.358   1_565  S
C471        C472   1.409   1_545  A
C471        F476   1.358       .  S
C472        C473   1.405       .  A
C473        F474   1.358       .  S
C478        C479   1.407       .  A
C478        C483   1.395       .  A
C478        F485   1.357       .  S
C479        C987   1.412       .  A
C480        C481   1.395       .  A
C480        C986   1.412   1_554  A
C480        F487   1.358       .  S
C481        C482   1.409       .  A
C481        F486   1.358       .  S
C482        C990   1.413   1_554  A
C483        C989   1.410       .  A
C483        F484   1.358       .  S
C488        C489   1.406       .  A
C488        C493   1.396       .  A
C488        F495   1.358       .  S
C489        C490   1.406       .  A
C490        C491   1.402       .  A
C490        F497   1.358       .  S
C491        C492   1.408       .  A
C491        F496   1.358       .  S
C492        C493   1.406       .  A
C493        F494   1.358       .  S
C498        C499   1.403       .  A
C498        C503   1.390       .  A
C498        F505   1.358       .  S
C499        C500   1.405       .  A
C500        C501   1.400       .  A
C500        F507   1.358       .  S
C501        C502   1.407       .  A
C501        F506   1.358       .  S
C502        C503   1.406       .  A
C503        F504   1.358       .  S
C508        N513   1.360       .  A
C508        C989   1.483       .  S
N509        C510   1.356       .  A
C510        N511   1.358   1_556  A
C510       C1006   1.472       .  S
C512        N513   1.362       .  A
C512        C999   1.475       .  S
C514        N515   1.359   1_554  A
C514        C956   1.493       .  S
N515        C516   1.357       .  A
C516        N517   1.356   1_556  A
C516        C976   1.475       .  S
C518        N519   1.362       .  A
C518        C969   1.476       .  S
N520        N521   1.319       .  A
N520        N526   1.315       .  A
N520       Mn549   2.195       .  S
N521        C528   1.353       .  A
N522        N524   1.316       .  A
N522        N523   1.319       .  A
N522       Mn538   2.198       .  S
N523        C529   1.353       .  A
N524        N525   1.316       .  A
N524       Mn549   2.186       .  S
N525        C529   1.352       .  A
N526        N527   1.317       .  A
N526       Mn538   2.188       .  S
N527        C528   1.350       .  A
C528        C926   1.466       .  S
C529        C919   1.472       .  S
N530        N536   1.316       .  A
N530        N531   1.320       .  A
N530       Mn560   2.202       .  S
N531        C539   1.355       .  A
N532        N533   1.316       .  A
N532        N534   1.316       .  A
N532       Mn538   2.188   1_565  S
N533        C540   1.351       .  A
N534        N535   1.321       .  A
N534       Mn560   2.211       .  S
N535        C540   1.356       .  A
N536        N537   1.314       .  A
N536       Mn538   2.180   1_565  S
N537        C539   1.349       .  A
Mn538      Cl562   2.539       .  S
C539        C996   1.468       .  S
C540       C1009   1.478       .  S
N541        N542   1.317       .  A
N541        N547   1.316       .  A
N541       Mn549   2.195       .  S
N542        C550   1.352       .  A
N543        N545   1.316       .  A
N543        N544   1.316       .  A
N543       Mn561   2.196       .  S
N544        C551   1.352       .  A
N545        N546   1.319       .  A
N545       Mn549   2.190       .  S
N546        C551   1.352       .  A
N547        N548   1.320       .  A
N547       Mn561   2.199       .  S
N548        C550   1.354       .  A
Mn549      Cl562   2.548       .  S
C550        C936   1.476       .  S
C551        C946   1.471       .  S
N552        N553   1.317       .  A
N552        N558   1.316   1_565  A
N552       Mn560   2.194       .  S
N553        C563   1.352       .  A
N554        N555   1.321       .  A
N554        N556   1.316   1_545  A
N554       Mn561   2.210       .  S
N555        C564   1.356   1_545  A
N556        N557   1.319       .  A
N556       Mn560   2.203       .  S
N557        C564   1.354       .  A
N558        N559   1.321       .  A
N558       Mn561   2.206       .  S
N559        C563   1.354   1_545  A
Mn560      Cl562   2.547   1_565  S
Mn561      Cl562   2.545       .  S
C563        C979   1.476       .  S
C564        C966   1.486       .  S
C565        N566   1.356   1_554  A
C565        C906   1.486       .  S
N566        C567   1.354       .  A
C567        N568   1.354   1_556  A
C567        C949   1.463       .  S
C569        N570   1.356       .  A
C569        C939   1.470       .  S
C571        N576   1.356       .  A
N572        C573   1.354       .  A
C573        N574   1.358   1_556  A
C573        C929   1.476       .  S
C575        N576   1.356       .  A
C575        C916   1.469       .  S
N577        N578   1.322       .  A
N577        N583   1.316       .  A
N577       Mn606   2.202       .  S
N578        C585   1.355       .  A
N579        N581   1.316       .  A
N579        N580   1.316       .  A
N579       Mn595   2.185       .  S
N580        C586   1.350       .  A
N581        N582   1.321       .  A
N581       Mn606   2.206       .  S
N582        C586   1.355       .  A
N583        N584   1.315       .  A
N583       Mn595   2.187       .  S
N584        C585   1.351       .  A
C585        C886   1.475       .  S
C586        C876   1.473       .  S
N587        N593   1.316       .  A
N587        N588   1.317       .  A
N587       Mn617   2.192       .  S
N588        C596   1.352       .  A
N589        N590   1.320       .  A
N589        N591   1.315       .  A
N589       Mn595   2.197       .  S
N590        C597   1.352       .  A
N591        N592   1.315       .  A
N591       Mn617   2.177       .  S
N592        C597   1.349       .  A
N593        N594   1.320       .  A
N593       Mn595   2.199       .  S
N594        C596   1.353       .  A
Mn595      Cl619   2.537       .  S
C596        C859   1.471       .  S
C597        C866   1.462       .  S
N598        N599   1.316       .  A
N598        N604   1.315       .  A
N598       Mn606   2.190   1_655  S
N599        C607   1.351       .  A
N600        N602   1.315       .  A
N600        N601   1.318       .  A
N600       Mn618   2.187       .  S
N601        C608   1.351       .  A
N602        N603   1.318       .  A
N602       Mn606   2.193   1_655  S
N603        C608   1.352       .  A
N604        N605   1.321       .  A
N604       Mn618   2.198       .  S
N605        C607   1.353       .  A
Mn606      Cl619   2.546       .  S
C607        C819   1.472       .  S
C608        C826   1.471       .  S
N609        N610   1.318       .  A
N609        N615   1.315   1_455  A
N609       Mn617   2.196       .  S
N610        C620   1.353   1_455  A
N611        N612   1.313       .  A
N611        N613   1.314   1_655  A
N611       Mn618   2.174       .  S
N612        C621   1.349       .  A
N613        N614   1.318       .  A
N613       Mn617   2.188       .  S
N614        C621   1.354   1_455  A
N615        N616   1.318       .  A
N615       Mn618   2.193       .  S
N616        C620   1.353       .  A
Mn617      Cl619   2.545       .  S
Mn618      Cl619   2.538   1_655  S
C620        C846   1.475       .  S
C621        C836   1.470       .  S
C622        N623   1.355       .  A
C622        C809   1.489       .  S
N623        C624   1.356       .  A
C624        N625   1.358       .  A
C624        C869   1.479       .  S
C626        N627   1.357       .  A
C626        C856   1.472       .  S
C628        N629   1.359       .  A
C628        C896   1.487       .  S
N629        C630   1.359       .  A
C630        N631   1.355       .  A
C630        C849   1.467       .  S
C632        N633   1.351       .  A
C632        C839   1.456       .  S
C634        N635   1.357       .  A
C634        C796   1.487       .  S
N635        C636   1.357       .  A
C636        N637   1.357       .  A
C636        C829   1.472       .  S
C638        N639   1.358       .  A
C638        C816   1.473       .  S
C640        N641   1.355   1_554  A
C640        C959   1.492       .  S
N641        C642   1.356       .  A
C642        N643   1.358   1_556  A
C642        C889   1.475       .  S
C644        N645   1.355       .  A
C644        C879   1.483       .  S
N646        N647   1.320       .  A
N646        N652   1.317       .  A
N646       Mn675   2.207       .  S
N647        C654   1.354       .  A
N648        N650   1.316       .  A
N648        N649   1.317       .  A
N648       Mn664   2.193       .  S
N649        C655   1.352       .  A
N650        N651   1.319       .  A
N650       Mn675   2.191       .  S
N651        C655   1.352       .  A
N652        N653   1.317       .  A
N652       Mn664   2.197       .  S
N653        C654   1.353       .  A
C654        C786   1.479       .  S
C655        C779   1.471       .  S
N656        N662   1.315       .  A
N656        N657   1.323       .  A
N656       Mn686   2.206       .  S
N657        C665   1.356       .  A
N658        N659   1.318       .  A
N658        N660   1.316       .  A
N658       Mn664   2.200       .  S
N659        C666   1.352       .  A
N660        N661   1.321       .  A
N660       Mn686   2.201       .  S
N661        C666   1.352       .  A
N662        N663   1.315       .  A
N662       Mn664   2.190       .  S
N663        C665   1.351       .  A
Mn664      Cl688   2.539       .  S
C665        C756   1.482       .  S
C666        C766   1.471       .  S
N667        N668   1.325       .  A
N667        N673   1.315       .  A
N667       Mn675   2.221       .  S
N668        C676   1.359       .  A
N669        N671   1.315       .  A
N669        N670   1.314       .  A
N669       Mn687   2.182       .  S
N670        C677   1.349       .  A
N671        N672   1.322       .  A
N671       Mn675   2.197       .  S
N672        C677   1.354       .  A
N673        N674   1.315       .  A
N673       Mn687   2.184       .  S
N674        C676   1.349       .  A
Mn675      Cl688   2.553       .  S
C676        C719   1.481       .  S
C677        C726   1.467       .  S
N678        N679   1.320       .  A
N678        N684   1.316       .  A
N678       Mn686   2.203       .  S
N679        C689   1.354       .  A
N680        N681   1.316       .  A
N680        N682   1.315       .  A
N680       Mn687   2.182       .  S
N681        C690   1.350       .  A
N682        N683   1.321       .  A
N682       Mn686   2.203       .  S
N683        C690   1.355       .  A
N684        N685   1.317       .  A
N684       Mn687   2.189       .  S
N685        C689   1.351       .  A
Mn686      Cl688   2.551       .  S
Mn687      Cl688   2.534       .  S
C689        C746   1.474       .  S
C690        C739   1.471       .  S
C691        N696   1.353       .  A
C691        C909   1.486       .  S
N692        C693   1.356       .  A
C693        N694   1.359       .  A
C693        C789   1.472       .  S
C695        N696   1.355       .  A
C695        C776   1.477       .  S
C697        N702   1.360       .  A
C697        C806   1.487       .  S
N698        C699   1.356       .  A
C699        N700   1.359       .  A
C699        C729   1.477       .  S
C701        N702   1.363       .  A
C701        C716   1.481       .  S
C703        N708   1.356       .  A
C703        C799   1.486       .  S
N704        C705   1.358       .  A
C705        C769   1.484       .  S
N706        C707   1.358   1_554  A
C707        N708   1.358       .  A
C707        C759   1.471       .  S
C709        N714   1.359       .  A
C709        C986   1.490       .  S
N710        C711   1.355       .  A
C711        N712   1.356       .  A
C711        C749   1.468       .  S
C713        N714   1.360       .  A
C713        C736   1.478       .  S
C715        C716   1.405       .  A
C715        C720   1.394       .  A
C715        F722   1.358       .  S
C716        C717   1.409       .  A
C717        C718   1.405       .  A
C717        F724   1.358       .  S
C718        C719   1.407       .  A
C718        F723   1.357       .  S
C719        C720   1.408       .  A
C720        F721   1.358       .  S
C725        C726   1.402       .  A
C725        C730   1.390       .  A
C725        F732   1.359       .  S
C726        C727   1.404       .  A
C727        C728   1.400       .  A
C727        F734   1.357       .  S
C728        C729   1.409       .  A
C728        F733   1.358       .  S
C729        C730   1.409       .  A
C730        F731   1.358       .  S
C735        C736   1.408       .  A
C735        C740   1.395       .  A
C735        F742   1.358       .  S
C736        C737   1.408       .  A
C737        C738   1.399       .  A
C737        F744   1.358       .  S
C738        C739   1.404       .  A
C738        F743   1.357       .  S
C739        C740   1.405       .  A
C740        F741   1.358       .  S
C745        C746   1.407       .  A
C745        C750   1.398       .  A
C745        F752   1.356       .  S
C746        C747   1.407       .  A
C747        C748   1.395       .  A
C747        F754   1.358       .  S
C748        C749   1.404       .  A
C748        F753   1.358       .  S
C749        C750   1.403       .  A
C750        F751   1.358       .  S
C755        C756   1.409       .  A
C755        C760   1.391       .  A
C755        F762   1.358       .  S
C756        C757   1.411       .  A
C757        C758   1.404       .  A
C757        F764   1.357       .  S
C758        C759   1.405       .  A
C758        F763   1.358       .  S
C759        C760   1.402       .  A
C760        F761   1.358       .  S
C765        C766   1.404       .  A
C765        C770   1.401       .  A
C765        F772   1.356       .  S
C766        C767   1.401       .  A
C767        C768   1.394       .  A
C767        F774   1.358       .  S
C768        C769   1.411       .  A
C768        F773   1.358       .  S
C769        C770   1.411       .  A
C770        F771   1.358       .  S
C775        C776   1.410       .  A
C775        C780   1.393       .  A
C775        F782   1.358       .  S
C776        C777   1.406       .  A
C777        C778   1.399       .  A
C777        F784   1.358       .  S
C778        C779   1.406       .  A
C778        F783   1.357       .  S
C779        C780   1.403       .  A
C780        F781   1.358       .  S
C785        C786   1.407       .  A
C785        C790   1.393       .  A
C785        F792   1.358       .  S
C786        C787   1.410       .  A
C787        C788   1.402       .  A
C787        F794   1.357       .  S
C788        C789   1.404       .  A
C788        F793   1.358       .  S
C789        C790   1.405       .  A
C790        F791   1.359       .  S
C795        C800   1.397       .  A
C795        F802   1.357       .  S
C796        C797   1.411       .  A
C797        C798   1.398       .  A
C797        F804   1.358       .  S
C798        C799   1.408       .  A
C798        F803   1.358       .  S
C800        F801   1.358       .  S
C805        C810   1.395       .  A
C805        F812   1.357       .  S
C806        C807   1.408       .  A
C807        C808   1.401       .  A
C807        F814   1.358       .  S
C808        C809   1.413       .  A
C808        F813   1.358       .  S
C810        F811   1.358       .  S
C815        C816   1.407       .  A
C815        C820   1.401       .  A
C815        F822   1.358       .  S
C816        C817   1.405       .  A
C817        C818   1.392       .  A
C817        F824   1.357       .  S
C818        C819   1.404       .  A
C818        F823   1.358       .  S
C819        C820   1.407       .  A
C820        F821   1.358       .  S
C825        C826   1.405       .  A
C825        C830   1.395       .  A
C825        F832   1.358       .  S
C826        C827   1.407       .  A
C827        C828   1.397       .  A
C827        F834   1.358       .  S
C828        C829   1.405       .  A
C828        F833   1.358       .  S
C829        C830   1.407       .  A
C830        F831   1.358       .  S
C835        C836   1.409       .  A
C835        C840   1.396       .  A
C835        F842   1.357   1_655  S
C836        C837   1.409       .  A
C837        C838   1.389       .  A
C837        F844   1.358       .  S
C838        C839   1.401       .  A
C838        F843   1.359       .  S
C839        C840   1.399       .  A
C840        F841   1.358   1_655  S
C845        C846   1.408       .  A
C845        C850   1.394       .  A
C845        F852   1.358       .  S
C846        C847   1.409   1_655  A
C847        C848   1.398   1_455  A
C847        F854   1.358       .  S
C848        C849   1.403       .  A
C848        F853   1.358   1_655  S
C849        C850   1.403       .  A
C850        F851   1.358       .  S
C855        C856   1.406       .  A
C855        C860   1.400       .  A
C855        F862   1.358       .  S
C856        C857   1.406       .  A
C857        C858   1.393       .  A
C857        F864   1.358       .  S
C858        C859   1.404       .  A
C858        F863   1.358       .  S
C859        C860   1.406       .  A
C860        F861   1.358       .  S
C865        C866   1.400       .  A
C865        C870   1.392       .  A
C865        F872   1.359       .  S
C866        C867   1.402       .  A
C867        C868   1.398       .  A
C867        F874   1.358       .  S
C868        C869   1.411       .  A
C868        F873   1.358       .  S
C869        C870   1.411       .  A
C870        F871   1.358       .  S
C875        C876   1.404       .  A
C875        C880   1.400       .  A
C875        F882   1.358       .  S
C876        C877   1.404       .  A
C877        C878   1.395       .  A
C877        F884   1.359       .  S
C878        C879   1.411       .  A
C878        F883   1.358       .  S
C879        C880   1.409       .  A
C880        F881   1.357       .  S
C885        C886   1.408       .  A
C885        C890   1.403       .  A
C885        F892   1.358       .  S
C886        C887   1.405       .  A
C887        C888   1.391       .  A
C887        F894   1.358       .  S
C888        C889   1.406       .  A
C888        F893   1.358       .  S
C889        C890   1.406       .  A
C890        F891   1.358       .  S
C895        C896   1.408       .  A
C895        C900   1.397       .  A
C895        F902   1.358       .  S
C897        C898   1.393       .  A
C897        F904   1.358       .  S
C898        F903   1.358       .  S
C899        C900   1.413       .  A
C900        F901   1.358       .  S
C905        C906   1.411   1_556  A
C905        C910   1.393       .  A
C905        F912   1.358       .  S
C907        C908   1.397       .  A
C907        F914   1.358       .  S
C908        F913   1.358       .  S
C909        C910   1.409       .  A
C910        F911   1.358       .  S
C915        C916   1.403       .  A
C915        C920   1.398       .  A
C915        F922   1.358       .  S
C916        C917   1.405       .  A
C917        C918   1.394       .  A
C917        F924   1.358       .  S
C918        C919   1.406       .  A
C918        F923   1.358       .  S
C919        C920   1.407       .  A
C920        F921   1.358       .  S
C925        C926   1.404       .  A
C925        C930   1.396       .  A
C925        F932   1.358       .  S
C926        C927   1.402       .  A
C927        C928   1.396       .  A
C927        F934   1.358       .  S
C928        C929   1.411       .  A
C928        F933   1.358       .  S
C929        C930   1.406       .  A
C930        F931   1.358       .  S
C935        C936   1.407       .  A
C935        C940   1.397       .  A
C935        F942   1.358       .  S
C936        C937   1.409       .  A
C937        C938   1.398       .  A
C937        F944   1.358       .  S
C938        C939   1.403       .  A
C938        F943   1.358       .  S
C939        C940   1.406       .  A
C940        F941   1.358       .  S
C945        C946   1.409       .  A
C945        C950   1.398       .  A
C945        F952   1.358       .  S
C946        C947   1.406       .  A
C947        C948   1.392       .  A
C947        F954   1.358       .  S
C948        C949   1.402       .  A
C948        F953   1.358       .  S
C949        C950   1.403       .  A
C950        F951   1.358       .  S
C955        C956   1.410   1_556  A
C955        C960   1.395       .  A
C955        F962   1.358       .  S
C957        C958   1.399       .  A
C957        F964   1.358       .  S
C958        F963   1.358       .  S
C959        C960   1.411   1_554  A
C960        F961   1.357       .  S
C965        C966   1.410   1_545  A
C965        C970   1.402   1_545  A
C965        F972   1.358       .  S
C966        C967   1.410       .  A
C967        C968   1.399       .  A
C967        F974   1.358       .  S
C968        C969   1.404       .  A
C968        F973   1.358       .  S
C969        C970   1.405       .  A
C970        F971   1.358   1_565  S
C975        C976   1.406       .  A
C975        C980   1.395       .  A
C975        F982   1.358       .  S
C976        C977   1.407       .  A
C977        C978   1.401   1_565  A
C977        F984   1.358   1_565  S
C978        C979   1.407   1_545  A
C978        F983   1.358       .  S
C979        C980   1.406       .  A
C980        F981   1.358       .  S
C985        C986   1.409       .  A
C985        C990   1.398       .  A
C985        F992   1.358       .  S
C987        C988   1.400       .  A
C987        F994   1.358       .  S
C988        C989   1.406       .  A
C988        F993   1.358       .  S
C990        F991   1.358       .  S
C995        C996   1.405       .  A
C995       C1000   1.395       .  A
C995       F1002   1.358       .  S
C996        C997   1.403       .  A
C997        C998   1.398       .  A
C997       F1004   1.358       .  S
C998        C999   1.409       .  A
C998       F1003   1.358       .  S
C999       C1000   1.406       .  A
C1000      F1001   1.358       .  S
C1005      C1006   1.404       .  A
C1005      C1010   1.396       .  A
C1005      F1012   1.359       .  S
C1006      C1007   1.404       .  A
C1007      C1008   1.400       .  A
C1007      F1014   1.358       .  S
C1008      C1009   1.408       .  A
C1008      F1013   1.357       .  S
C1009      C1010   1.409       .  A
C1010      F1011   1.358       .  S
