geometry optimzed in LAMMPS
_audit_creation_date              2020-12-01 
_audit_creation_method            'lammps2cif' 
_symmetry_space_group_name_H-M    'P1' 
_symmetry_Int_Tables_number       1 
_symmetry_cell_setting            triclinic 
loop_ 
_symmetry_equiv_pos_as_xyz 
  x,y,z 
_cell_length_a                    19.75571169 
_cell_length_b                    31.619251256603395 
_cell_length_c                    33.76430451963321 
_cell_angle_alpha                 90.75902049413159 
_cell_angle_beta                  90.29988065768481 
_cell_angle_gamma                 90.19105346912215 
loop_ 
_atom_site_label 
_atom_site_type_symbol 
_atom_site_fract_x 
_atom_site_fract_y 
_atom_site_fract_z 
_atom_site_charge 
O1          O  0.31199643  0.20002078  0.03635981    -0.73600
O2          O  0.27937914  0.28862496  0.95399402    -0.74600
O3          O  0.30269886  0.28868812  0.03676857    -0.63200
O4          O  0.29103979  0.19955973  0.95261168    -0.71600
O5          O  0.18068002  0.19371331  0.96077787    -0.71100
O6          O  0.19304192  0.28304488  0.04878690    -0.62400
O7          O  0.16874626  0.28373708  0.96449090    -0.74900
O8          O  0.20173406  0.19363615  0.04510198    -0.73700
Cu9        Cu  0.29986447  0.24439215  0.99456337     1.04600
Cu10       Cu  0.18202277  0.23838762  0.00507541     1.04300
C11         C  0.26216130  0.18358873  0.05469397     0.92600
C12         C  0.21872284  0.29963456  0.94598351     0.91800
C13         C  0.25127612  0.29875811  0.05740893     0.83900
C14         C  0.23476930  0.18272234  0.94249009     0.90200
C15         C  0.28476178  0.09602865  0.20823024    -0.03100
C16         C  0.28443310  0.40441420  0.20252959    -0.03100
C17         C  0.53371015  0.15615366  0.29955589    -0.03100
C18         C  0.03600568  0.34889745  0.29162374    -0.03100
O19         O  0.46100303  0.44949611  0.46198396    -0.73600
O20         O  0.43793982  0.04458044  0.53929853    -0.74600
O21         O  0.44892155  0.03751622  0.45519602    -0.63200
O22         O  0.44948310  0.45577598  0.54552770    -0.71600
O23         O  0.06035850  0.45821852  0.54839544    -0.71100
O24         O  0.06149803  0.04583940  0.46177872    -0.62400
O25         O  0.05032595  0.04904350  0.54653736    -0.74900
O26         O  0.07159188  0.45628631  0.46291762    -0.73700
Cu27       Cu  0.44578223  0.99641563  0.50027417     1.04600
Cu28       Cu  0.06541633  0.00254025  0.50536704     1.04300
C29         C  0.51868945  0.43910269  0.44827766     0.92600
C30         C  0.48988564  0.06189821  0.55546279     0.91800
C31         C  0.50448238  0.05408751  0.44388048     0.83900
C32         C  0.50529614  0.44470172  0.56148988     0.90200
C33         C  0.21337215  0.09116752  0.78852935    -0.03100
C34         C  0.21599704  0.39845500  0.80048039    -0.03100
C35         C  0.96561149  0.15817141  0.70310140    -0.03100
C36         C  0.46441610  0.35030035  0.70922377    -0.03100
C37         C  0.96133246  0.20812753  0.70549638    -0.06800
C38         C  0.43710507  0.23214869  0.67234948    -0.17900
C39         C  0.42897730  0.27649739  0.67450292     0.10400
C40         C  0.46294370  0.30019037  0.70485395    -0.06700
C41         C  0.98576315  0.27578952  0.73761493    -0.17900
C42         C  0.97272218  0.23263127  0.74092029     0.10500
S43         S  0.37201689  0.30032444  0.63937879    -0.32900
S44         S  0.97066821  0.21443025  0.79200105    -0.32900
H45         H  0.96364364  0.17080239  0.78634045     0.28500
H46         H  0.34208939  0.26270839  0.62490979     0.28500
H47         H  0.41951461  0.21636243  0.64573782     0.19100
H48         H  0.00909261  0.29081863  0.76318173     0.19100
C49         C  0.15310129  0.38037947  0.77648788    -0.06800
C50         C  0.09011714  0.39112594  0.79269208    -0.17900
C51         C  0.02920469  0.38563547  0.77263918     0.10400
C52         C  0.02740752  0.36271253  0.73563956    -0.06700
C53         C  0.09005231  0.34721960  0.72179691    -0.17900
C54         C  0.15121327  0.35325496  0.74202708     0.10500
S55         S  0.96271671  0.41671826  0.79461419    -0.32900
S56         S  0.21784163  0.31943994  0.72299818    -0.32900
H57         H  0.24077727  0.30375763  0.75912425     0.28500
H58         H  0.47881674  0.40663305  0.83470958     0.28500
H59         H  0.08966477  0.40918738  0.82004607     0.19100
H60         H  0.09073428  0.32770212  0.69518408     0.19100
C61         C  0.39511213  0.36131931  0.72946742    -0.06800
C62         C  0.38387046  0.34379118  0.76715272    -0.17900
C63         C  0.33248100  0.35656966  0.79266648     0.10400
C64         C  0.28248714  0.38545968  0.77899666    -0.06700
C65         C  0.29115110  0.40150104  0.74032707    -0.17900
C66         C  0.34236480  0.38747354  0.71455336     0.10500
S67         S  0.34497389  0.33963800  0.84329212    -0.32900
S68         S  0.33011495  0.39839042  0.66242670    -0.32900
H69         H  0.26830634  0.42015375  0.66492202     0.28500
H70         H  0.36855403  0.29881171  0.83360665     0.28500
H71         H  0.42213499  0.32480818  0.78041737     0.19100
H72         H  0.25269530  0.42227076  0.72875391     0.19100
C73         C  0.15384313  0.10973408  0.76294241    -0.06800
C74         C  0.11746278  0.14586942  0.77526386    -0.17900
C75         C  0.07766097  0.16727817  0.74774388     0.10400
C76         C  0.03734011  0.14283949  0.72108238    -0.06700
C77         C  0.07366053  0.10687629  0.70681108    -0.17900
C78         C  0.13651442  0.09448682  0.72391685     0.10500
S79         S  0.11987245  0.21487380  0.73129132    -0.32900
S80         S  0.18820664  0.05684826  0.69705931    -0.32900
H81         H  0.15306028  0.05915076  0.66079769     0.28500
H82         H  0.09441029  0.21457992  0.69251302     0.28500
H83         H  0.13078122  0.16287600  0.80200363     0.19100
H84         H  0.05528785  0.08883197  0.68168905     0.19100
C85         C  0.40200324  0.13865037  0.72579312    -0.06800
C86         C  0.35216234  0.16557571  0.74228157    -0.17900
C87         C  0.29658622  0.15159756  0.76408229     0.10400
C88         C  0.27955132  0.10754995  0.76605425    -0.06700
C89         C  0.32627085  0.08004855  0.74717296    -0.17900
C90         C  0.38620558  0.09466917  0.72832136     0.10500
S91         S  0.25322668  0.19307225  0.79102644    -0.32900
S92         S  0.43474413  0.05573381  0.70259989    -0.32900
H93         H  0.37733537  0.03791857  0.68386867     0.28500
H94         H  0.30705607  0.22229262  0.79369788     0.28500
H95         H  0.35451323  0.19916766  0.73823440     0.19100
H96         H  0.31611080  0.04649190  0.74598180     0.19100
C97         C  0.20824110  0.04116958  0.79227905    -0.06800
C98         C  0.26286583  0.02032426  0.81099350    -0.17900
C99         C  0.26671930  0.47686615  0.81635042     0.10400
C100        C  0.21563742  0.44920967  0.80009462    -0.06700
C101        C  0.16534057  0.47037282  0.77797845    -0.17900
C102        C  0.15413911  0.01347908  0.77952721     0.10500
S103        S  0.34010738  0.46055431  0.84386562    -0.32900
S104        S  0.06659602  0.02488898  0.76671967    -0.32900
H105        H  0.05639290  0.06530241  0.78142862     0.28500
H106        H  0.31707983  0.42125097  0.85480284     0.28500
H107        H  0.30479337  0.03902276  0.82217809     0.19100
H108        H  0.13071771  0.45329608  0.75899589     0.19100
C109        C  0.50337491  0.41917204  0.59769707    -0.06800
C110        C  0.49012994  0.44095286  0.63278215    -0.17900
C111        C  0.48047484  0.41981855  0.66830818     0.10400
C112        C  0.47964673  0.37469533  0.66971927    -0.06700
C113        C  0.00155887  0.35295596  0.63457436    -0.17900
C114        C  0.01048329  0.37403452  0.59835906     0.10500
S115        S  0.46648173  0.45335241  0.71013631    -0.32900
S116        S  0.03257258  0.34228516  0.55551542    -0.32900
H117        H  0.03826487  0.37474064  0.52779738     0.28500
H118        H  0.40552158  0.46854859  0.69440874     0.28500
H119        H  0.48645570  0.47519899  0.63245793     0.19100
H120        H  0.01259730  0.31957842  0.63487813     0.19100
C121        C  0.98136509  0.09524378  0.58739913    -0.06800
C122        C  0.41577080  0.10003971  0.60368108    -0.17900
C123        C  0.40529039  0.12551654  0.63738397     0.10400
C124        C  0.96283525  0.14395442  0.65807165    -0.06700
C125        C  0.02217916  0.14803271  0.63506579    -0.17900
C126        C  0.03328169  0.12271910  0.60112422     0.10500
S127        S  0.31765286  0.13465076  0.64986421    -0.32900
S128        S  0.11433960  0.12549758  0.57665973    -0.32900
H129        H  0.14472260  0.15554972  0.60225414     0.28500
H130        H  0.32724744  0.17618582  0.66382103     0.28700
H131        H  0.37283792  0.08318970  0.59099674     0.19100
H132        H  0.06331000  0.16724506  0.64629848     0.19100
C133        C  0.02175222  0.41166036  0.41165420    -0.06800
C134        C  0.08436161  0.39579347  0.39859416    -0.17900
C135        C  0.09203457  0.37500516  0.36134283     0.10400
C136        C  0.03460282  0.36987208  0.33504734    -0.06700
C137        C  0.47495253  0.38902997  0.34920784    -0.17900
C138        C  0.46587689  0.40557868  0.38706445     0.10500
S139        S  0.17837573  0.36258389  0.34708067    -0.32900
S140        S  0.38126711  0.42392904  0.39909592    -0.32900
H141        H  0.34612113  0.89678582  0.37154503     0.28500
H142        H  0.20837997  0.36620013  0.38484382     0.28500
H143        H  0.12842044  0.40136175  0.41712706     0.19100
H144        H  0.43359148  0.39560477  0.32993266     0.19100
C145        C  0.51934501  0.13443749  0.34081776    -0.06800
C146        C  0.00254757  0.09147892  0.33827024    -0.17900
C147        C  0.99577355  0.06569470  0.37114125     0.10400
C148        C  0.50499366  0.08159130  0.40889542    -0.06700
C149        C  0.51597827  0.12496156  0.41340521    -0.17900
C150        C  0.51944388  0.15212988  0.38067938     0.10500
S151        S  0.97964419  0.01046313  0.36234360    -0.32900
S152        S  0.52255337  0.20702320  0.39626661    -0.32900
H153        H  0.48061516  0.22419010  0.36745993     0.28500
H154        H  0.03933772  0.49897736  0.38588934     0.28500
H155        H  0.99963227  0.07557504  0.30977069     0.19100
H156        H  0.52024780  0.13800090  0.44319296     0.19100
C157        C  0.53797274  0.20624954  0.29903179    -0.06800
C158        C  0.50177101  0.22816507  0.26919014    -0.17900
C159        C  0.50682056  0.27171125  0.26364624     0.10400
C160        C  0.03673412  0.29879004  0.29334415    -0.06700
C161        C  0.07806758  0.27718867  0.32079206    -0.17900
C162        C  0.08640706  0.23283456  0.31984156     0.10500
S163        S  0.48681455  0.28921909  0.21398826    -0.32900
S164        S  0.16255711  0.21360159  0.34346365    -0.32900
H165        H  0.14176146  0.17221947  0.34934241     0.28500
H166        H  0.43218141  0.26123126  0.20742593     0.28500
H167        H  0.47620703  0.21089676  0.24578262     0.19100
H168        H  0.10803534  0.29435220  0.34192568     0.19100
C169        C  0.22039381  0.39030765  0.22676860    -0.06800
C170        C  0.17703540  0.41996297  0.24553681    -0.17900
C171        C  0.11967514  0.40803121  0.26708124     0.10400
C172        C  0.10084131  0.36452785  0.26942823    -0.06700
C173        C  0.14314944  0.33517778  0.24975838    -0.17900
C174        C  0.20105576  0.34690252  0.22933972     0.10500
S175        S  0.06879990  0.45009571  0.28827354    -0.32900
S176        S  0.25026096  0.30361938  0.20926307    -0.32900
H177        H  0.19323666  0.28323115  0.19262587     0.28500
H178        H  0.11898910  0.48180538  0.28853950     0.28500
H179        H  0.18484315  0.45334922  0.24225171     0.19100
H180        H  0.13275997  0.30175248  0.24992704     0.19100
C181        C  0.35105748  0.38968932  0.22527308    -0.06800
C182        C  0.34737916  0.36459459  0.25973367    -0.17900
C183        C  0.40420186  0.34758894  0.27856667     0.10400
C184        C  0.47058344  0.36167737  0.26830981    -0.06700
C185        C  0.47455460  0.38744338  0.23438912    -0.17900
C186        C  0.41765416  0.40229921  0.21400318     0.10500
S187        S  0.38855001  0.31104928  0.31865620    -0.32900
S188        S  0.43446113  0.43624626  0.17251442    -0.32900
H189        H  0.49698963  0.45227563  0.18627712     0.28500
H190        H  0.32305130  0.29859740  0.30659373     0.28500
H191        H  0.29987858  0.35777673  0.27353485     0.19100
H192        H  0.52257251  0.39527198  0.22166794     0.19100
C193        C  0.10262793  0.14041918  0.27903427    -0.06800
C194        C  0.12484698  0.16143031  0.24456512    -0.17900
C195        C  0.18590400  0.15182964  0.22525390     0.10400
C196        C  0.21919787  0.11219793  0.23173223    -0.06700
C197        C  0.19293461  0.08917711  0.26380977    -0.17900
C198        C  0.14500657  0.10582112  0.29061941     0.10500
S199        S  0.21759262  0.19416592  0.19512852    -0.32900
S200        S  0.15155746  0.08530299  0.34032523    -0.32900
H201        H  0.21350419  0.06392816  0.33630565     0.28500
H202        H  0.28492520  0.19090435  0.20802329     0.28500
H203        H  0.09742523  0.18835391  0.23375389     0.19100
H204        H  0.21166554  0.05850329  0.27033639     0.19100
C205        C  0.35167691  0.11221168  0.22961851    -0.06800
C206        C  0.34684712  0.14106149  0.26172952    -0.17900
C207        C  0.40257605  0.15468738  0.28416355     0.10400
C208        C  0.46959818  0.14189948  0.27402146    -0.06700
C209        C  0.47530233  0.11330300  0.24173237    -0.17900
C210        C  0.41896763  0.09764112  0.22048216     0.10500
S211        S  0.38390365  0.18769828  0.32667224    -0.32900
S212        S  0.44030514  0.05702628  0.18429621    -0.32900
H213        H  0.39390428  0.06692560  0.15468046     0.28500
H214        H  0.32228772  0.20443305  0.31296595     0.28500
H215        H  0.29842265  0.15257784  0.27129434     0.19100
H216        H  0.52410434  0.10067701  0.23365503     0.19100
C217        C  0.28870034  0.04579035  0.20666093    -0.06800
C218        C  0.28114249  0.02380762  0.17001498    -0.17900
C219        C  0.28334914  0.48015574  0.16623625     0.10400
C220        C  0.28944359  0.45415234  0.20043647    -0.06700
C221        C  0.30439628  0.47579809  0.23643003    -0.17900
C222        C  0.30700131  0.01989151  0.23962476     0.10500
S223        S  0.27892555  0.46290685  0.11493791    -0.32900
S224        S  0.33694613  0.04084371  0.28705403    -0.32900
H225        H  0.35574540  0.00252289  0.30459788     0.28500
H226        H  0.33805852  0.43873105  0.11528587     0.28500
H227        H  0.27617424  0.04061996  0.14274205     0.19100
H228        H  0.31258240  0.45739642  0.26281317     0.19100
C229        C  0.28008482  0.11441173  0.16489783    -0.06800
C230        C  0.33507984  0.13764311  0.14887684    -0.17900
C231        C  0.33390932  0.15501455  0.11114714     0.10400
C232        C  0.27319117  0.15511659  0.08909134    -0.06700
C233        C  0.21797991  0.13217193  0.10377811    -0.17900
C234        C  0.22045128  0.11115312  0.14019389     0.10500
S235        S  0.41253732  0.17698952  0.09381581    -0.32900
S236        S  0.14215015  0.08419589  0.15268270    -0.32900
H237        H  0.16368156  0.05834471  0.18339406     0.28500
H238        H  0.40950334  0.15486066  0.05739585     0.28500
H239        H  0.38117881  0.14305322  0.16516536     0.19100
H240        H  0.17112002  0.13126915  0.08694831     0.19100
C241        C  0.26070475  0.32756107  0.09224927    -0.06800
C242        C  0.20704685  0.35261681  0.10557737    -0.17900
C243        C  0.21323455  0.37938208  0.13903171     0.10400
C244        C  0.27641378  0.38201488  0.16075529    -0.06700
C245        C  0.32990453  0.35675705  0.14576390    -0.17900
C246        C  0.32254407  0.32961650  0.11323790     0.10500
S247        S  0.13609671  0.40735329  0.15135714    -0.32900
S248        S  0.39234436  0.29437708  0.10374569    -0.32900
H249        H  0.35002421  0.25855728  0.10220901     0.28500
H250        H  0.16533580  0.44340327  0.16852009     0.28500
H251        H  0.15915172  0.35115626  0.08980466     0.19100
H252        H  0.37759145  0.35438876  0.16081267     0.19100
C253        C  0.23184472  0.15246218  0.90783290    -0.06800
C254        C  0.16881870  0.13710176  0.89479346    -0.17900
C255        C  0.16159531  0.11336392  0.85953251     0.10400
C256        C  0.21736013  0.10831013  0.83305113    -0.06700
C257        C  0.28171424  0.11812057  0.84986798    -0.17900
C258        C  0.28976733  0.13999754  0.88606228     0.10500
S259        S  0.08013770  0.08960047  0.85257119    -0.32900
S260        S  0.37511760  0.15096683  0.90331480    -0.32900
H261        H  0.40987631  0.13833606  0.86889681     0.28500
H262        H  0.10721145  0.04856030  0.85135075     0.28500
H263        H  0.12422631  0.14333422  0.91246143     0.19100
H264        H  0.32713766  0.10970571  0.83408097     0.19100
C265        C  0.20614172  0.37695782  0.84215977    -0.06800
C266        C  0.19433781  0.33250683  0.84111267    -0.17900
C267        C  0.19380681  0.30795472  0.87477896     0.10400
C268        C  0.20630468  0.32675486  0.91170772    -0.06700
C269        C  0.20825188  0.37095206  0.91480639    -0.17900
C270        C  0.20283910  0.39640723  0.88086845     0.10500
S271        S  0.18152027  0.25193292  0.86860108    -0.32900
S272        S  0.18721658  0.45157604  0.89120256    -0.32900
H273        H  0.13502965  0.45575726  0.86327211     0.28500
H274        H  0.24790597  0.24312225  0.88121400     0.28500
H275        H  0.18861362  0.31564152  0.81348740     0.19100
H276        H  0.21201542  0.38568239  0.94390210     0.19100
O277        O  0.31168866  0.69990494  0.03681611    -0.73600
O278        O  0.27933442  0.78808506  0.95391943    -0.74600
O279        O  0.30232386  0.78853840  0.03672448    -0.63200
O280        O  0.29102122  0.69912284  0.95297401    -0.71600
O281        O  0.18063176  0.69327485  0.96102739    -0.71100
O282        O  0.19263980  0.78291233  0.04867578    -0.62400
O283        O  0.16868147  0.78316333  0.96432810    -0.74900
O284        O  0.20141503  0.69351870  0.04547163    -0.73700
Cu285      Cu  0.29968578  0.74406700  0.99475163     1.04600
Cu286      Cu  0.18181893  0.73806213  0.00516434     1.04300
C287        C  0.26182614  0.68357788  0.05521608     0.92600
C288        C  0.21867143  0.79897644  0.94576914     0.91800
C289        C  0.25084531  0.79866252  0.05728383     0.83900
C290        C  0.23475394  0.68237161  0.94274059     0.90200
C291        C  0.28492386  0.59631269  0.20901337    -0.03100
C292        C  0.28391541  0.90422943  0.20231627    -0.03100
C293        C  0.53454590  0.65661169  0.29981030    -0.03100
C294        C  0.03605501  0.84897992  0.29230160    -0.03100
O295        O  0.46114926  0.94924427  0.46175758    -0.73600
O296        O  0.43827236  0.54474546  0.53952141    -0.74600
O297        O  0.44954759  0.53792606  0.45544874    -0.63200
O298        O  0.44965364  0.95555400  0.54519312    -0.71600
O299        O  0.06141562  0.95880447  0.54870034    -0.71100
O300        O  0.06088312  0.54612528  0.46222282    -0.62400
O301        O  0.04893414  0.54848945  0.54683858    -0.74900
O302        O  0.07204942  0.95601509  0.46331504    -0.73700
Cu303      Cu  0.44592495  0.49668391  0.50051588     1.04600
Cu304      Cu  0.06449731  0.50236914  0.50541054     1.04300
C305        C  0.51887689  0.93893911  0.44804933     0.92600
C306        C  0.49025812  0.56188650  0.55578183     0.91800
C307        C  0.50524690  0.55445301  0.44425540     0.83900
C308        C  0.50549866  0.94451066  0.56110301     0.90200
C309        C  0.21356022  0.59187108  0.78819132    -0.03100
C310        C  0.21494605  0.89778284  0.80020532    -0.03100
C311        C  0.96546730  0.65850638  0.70259024    -0.03100
C312        C  0.46351352  0.85023954  0.70872464    -0.03100
C313        C  0.96083313  0.70845082  0.70497132    -0.06800
C314        C  0.43727276  0.73189205  0.67230653    -0.17900
C315        C  0.42855767  0.77620462  0.67437354     0.10400
C316        C  0.46252105  0.80011841  0.70454758    -0.06700
C317        C  0.98482897  0.77611229  0.73714633    -0.17900
C318        C  0.97213103  0.73293692  0.74041158     0.10500
S319        S  0.37092561  0.79977814  0.63944924    -0.32900
S320        S  0.97031203  0.71474192  0.79150124    -0.32900
H321        H  0.96377452  0.67107989  0.78590128     0.28500
H322        H  0.34224619  0.76199586  0.62449660     0.28500
H323        H  0.41951880  0.71592442  0.64582773     0.19100
H324        H  0.00803127  0.79114467  0.76275080     0.19100
C325        C  0.15182042  0.87992394  0.77630490    -0.06800
C326        C  0.08889339  0.89072018  0.79259695    -0.17900
C327        C  0.02792054  0.88549790  0.77250625     0.10400
C328        C  0.02605819  0.86290405  0.73534276    -0.06700
C329        C  0.08865332  0.84742014  0.72138066    -0.17900
C330        C  0.14976477  0.85302474  0.74172348     0.10500
S331        S  0.96136983  0.91635928  0.79468775    -0.32900
S332        S  0.21601654  0.81886030  0.72278203    -0.32900
H333        H  0.23897939  0.80340002  0.75899267     0.28500
H334        H  0.47730747  0.90760298  0.83401585     0.28500
H335        H  0.08857524  0.90860414  0.82005167     0.19100
H336        H  0.08927850  0.82809552  0.69464628     0.19100
C337        C  0.39415170  0.86109392  0.72894806    -0.06800
C338        C  0.38304186  0.84347133  0.76660858    -0.17900
C339        C  0.33143842  0.85591691  0.79211358     0.10400
C340        C  0.28126249  0.88474322  0.77852467    -0.06700
C341        C  0.28979806  0.90084945  0.73984292    -0.17900
C342        C  0.34115699  0.88703259  0.71406586     0.10500
S343        S  0.34371506  0.83858249  0.84264718    -0.32900
S344        S  0.32919341  0.89849296  0.66207016    -0.32900
H345        H  0.26084625  0.91069982  0.66379618     0.28500
H346        H  0.36994971  0.79840054  0.83299283     0.28500
H347        H  0.42151625  0.82465992  0.77984301     0.19100
H348        H  0.25148301  0.92175150  0.72826573     0.19100
C349        C  0.15407678  0.61045210  0.76246312    -0.06800
C350        C  0.11737879  0.64648605  0.77476441    -0.17900
C351        C  0.07749072  0.66784142  0.74720781     0.10400
C352        C  0.03746434  0.64336302  0.72044061    -0.06700
C353        C  0.07424050  0.60760560  0.70609720    -0.17900
C354        C  0.13713798  0.59536135  0.72332511     0.10500
S355        S  0.11938146  0.71552340  0.73072879    -0.32900
S356        S  0.18935144  0.55800946  0.69649977    -0.32900
H357        H  0.15535522  0.56118982  0.65993429     0.28500
H358        H  0.09423143  0.71489390  0.69186382     0.28500
H359        H  0.13048765  0.66347344  0.80155663     0.19100
H360        H  0.05610258  0.58952025  0.68093681     0.19100
C361        C  0.40292033  0.63891596  0.72616779    -0.06800
C362        C  0.35284871  0.66598417  0.74222993    -0.17900
C363        C  0.29686738  0.65217117  0.76374205     0.10400
C364        C  0.27985820  0.60813699  0.76585241    -0.06700
C365        C  0.32695851  0.58049741  0.74749813    -0.17900
C366        C  0.38726084  0.59497334  0.72902467     0.10500
S367        S  0.25293400  0.69378503  0.79020189    -0.32900
S368        S  0.43645068  0.55584886  0.70405564    -0.32900
H369        H  0.37961441  0.53844476  0.68440911     0.28500
H370        H  0.30609009  0.72352326  0.79232844     0.28500
H371        H  0.35521102  0.69953425  0.73795219     0.19100
H372        H  0.31686034  0.54693413  0.74641793     0.19100
C373        C  0.20863114  0.54184761  0.79208248    -0.06800
C374        C  0.26307458  0.52114433  0.81117974    -0.17900
C375        C  0.26623292  0.97604871  0.81613935     0.10400
C376        C  0.21488112  0.94852589  0.79994643    -0.06700
C377        C  0.16445451  0.96985852  0.77808944    -0.17900
C378        C  0.15494672  0.51400632  0.77906648     0.10500
S379        S  0.33933964  0.95969710  0.84386717    -0.32900
S380        S  0.06778151  0.52532789  0.76547667    -0.32900
H381        H  0.05701470  0.56541526  0.78083358     0.28500
H382        H  0.31679160  0.92007171  0.85402096     0.28500
H383        H  0.30477922  0.53994045  0.82251252     0.19100
H384        H  0.12959026  0.95295139  0.75912927     0.19100
C385        C  0.50347308  0.91889640  0.59720818    -0.06800
C386        C  0.49035605  0.94071837  0.63226177    -0.17900
C387        C  0.48004245  0.91963642  0.66771761     0.10400
C388        C  0.47875271  0.87451518  0.66915605    -0.06700
C389        C  0.00030001  0.85349086  0.63433574    -0.17900
C390        C  0.00961896  0.87476524  0.59828896     0.10500
S391        S  0.46632939  0.95334254  0.70943832    -0.32900
S392        S  0.03104603  0.84330367  0.55515736    -0.32900
H393        H  0.01945856  0.87392009  0.52620345     0.28500
H394        H  0.40497609  0.96819204  0.69396311     0.28500
H395        H  0.48718756  0.97498855  0.63195148     0.19100
H396        H  0.01080672  0.82004676  0.63441723     0.19100
C397        C  0.97997445  0.59496702  0.58732215    -0.06800
C398        C  0.41637831  0.59934950  0.60441814    -0.17900
C399        C  0.40590234  0.62487582  0.63804000     0.10400
C400        C  0.96216138  0.64425765  0.65761370    -0.06700
C401        C  0.02119057  0.64826489  0.63436851    -0.17900
C402        C  0.03190637  0.62271118  0.60054868     0.10500
S403        S  0.31822563  0.63372731  0.65059327    -0.32900
S404        S  0.11246912  0.62557121  0.57555143    -0.32900
H405        H  0.14271935  0.65631381  0.60046474     0.28500
H406        H  0.32737867  0.67557325  0.66379387     0.28700
H407        H  0.37357110  0.58216350  0.59198252     0.19100
H408        H  0.06239684  0.66760284  0.64533864     0.19100
C409        C  0.02184538  0.91085450  0.41265523    -0.06800
C410        C  0.08445037  0.89507476  0.39951816    -0.17900
C411        C  0.09211467  0.87453972  0.36216002     0.10400
C412        C  0.03467219  0.86962382  0.33584262    -0.06700
C413        C  0.47499779  0.88884100  0.34904322    -0.17900
C414        C  0.46597606  0.90499774  0.38705028     0.10500
S415        S  0.17845000  0.86219575  0.34780705    -0.32900
S416        S  0.38093173  0.92199465  0.39973723    -0.32900
H417        H  0.34603568  0.39844895  0.37129484     0.28500
H418        H  0.20875008  0.86618242  0.38546168     0.28500
H419        H  0.12852943  0.90061625  0.41803981     0.19100
H420        H  0.43324555  0.89505187  0.32994878     0.19100
C421        C  0.52046049  0.63490588  0.34114964    -0.06800
C422        C  0.00262515  0.59181573  0.33868287    -0.17900
C423        C  0.99643220  0.56604202  0.37157983     0.10400
C424        C  0.50611429  0.58201622  0.40927400    -0.06700
C425        C  0.51663083  0.62543938  0.41377990    -0.17900
C426        C  0.52027244  0.65260679  0.38103058     0.10500
S427        S  0.98318740  0.51056697  0.36274963    -0.32900
S428        S  0.52309240  0.70750087  0.39665994    -0.32900
H429        H  0.48141057  0.72469828  0.36775466     0.28500
H430        H  0.03469100  0.99767152  0.38577868     0.28500
H431        H  0.00021392  0.57584372  0.31020068     0.19100
H432        H  0.52045598  0.63850973  0.44357471     0.19100
C433        C  0.53861427  0.70669229  0.29918104    -0.06800
C434        C  0.50271826  0.72848719  0.26910673    -0.17900
C435        C  0.50892325  0.77189624  0.26306011     0.10400
C436        C  0.03652796  0.79890415  0.29381869    -0.06700
C437        C  0.07773858  0.77720301  0.32122494    -0.17900
C438        C  0.08607310  0.73290074  0.32010413     0.10500
S439        S  0.48998173  0.78961594  0.21327883    -0.32900
S440        S  0.16244853  0.71360331  0.34338399    -0.32900
H441        H  0.14077196  0.67262987  0.35037559     0.28500
H442        H  0.49885874  0.75048752  0.19363585     0.28500
H443        H  0.47545395  0.71134993  0.24628019     0.19100
H444        H  0.10767484  0.79423844  0.34245360     0.19100
C445        C  0.21992748  0.89020548  0.22670636    -0.06800
C446        C  0.17704315  0.91988257  0.24584454    -0.17900
C447        C  0.12020962  0.90798792  0.26790565     0.10400
C448        C  0.10101571  0.86453789  0.27012342    -0.06700
C449        C  0.14281398  0.83517911  0.25007547    -0.17900
C450        C  0.20032924  0.84685223  0.22925536     0.10500
S451        S  0.07038072  0.95004139  0.28996399    -0.32900
S452        S  0.24873748  0.80353181  0.20863028    -0.32900
H453        H  0.19124678  0.78359400  0.19204359     0.28500
H454        H  0.12055610  0.98174330  0.28951452     0.28500
H455        H  0.18486503  0.95326057  0.24256078     0.19100
H456        H  0.13230730  0.80177049  0.25020856     0.19100
C457        C  0.35067456  0.88950448  0.22498520    -0.06800
C458        C  0.34720226  0.86415298  0.25929263    -0.17900
C459        C  0.40420612  0.84735076  0.27816449     0.10400
C460        C  0.47047689  0.86172584  0.26798484    -0.06700
C461        C  0.47421879  0.88763144  0.23416375    -0.17900
C462        C  0.41721612  0.90235365  0.21379122     0.10500
S463        S  0.38894831  0.81069842  0.31822766    -0.32900
S464        S  0.43396673  0.93646716  0.17242115    -0.32900
H465        H  0.49581606  0.95307890  0.18665578     0.28500
H466        H  0.32266563  0.79896631  0.30709189     0.28500
H467        H  0.29973498  0.85704281  0.27297480     0.19100
H468        H  0.52217954  0.89571735  0.22150800     0.19100
C469        C  0.10243649  0.64062080  0.27955917    -0.06800
C470        C  0.12487732  0.66163081  0.24515044    -0.17900
C471        C  0.18618615  0.65216280  0.22609009     0.10400
C472        C  0.21951377  0.61256050  0.23263184    -0.06700
C473        C  0.19305195  0.58946344  0.26460365    -0.17900
C474        C  0.14476184  0.60601881  0.29128788     0.10500
S475        S  0.21798335  0.69457826  0.19608839    -0.32900
S476        S  0.15167939  0.58621831  0.34128955    -0.32900
H477        H  0.20220953  0.55562271  0.33528619     0.28500
H478        H  0.28547849  0.69104691  0.20858274     0.28500
H479        H  0.09744431  0.68849307  0.23422041     0.19100
H480        H  0.21205811  0.55886809  0.27101902     0.19100
C481        C  0.35203203  0.61238004  0.23033881    -0.06800
C482        C  0.34744376  0.64133887  0.26236427    -0.17900
C483        C  0.40321406  0.65456459  0.28498792     0.10400
C484        C  0.47028499  0.64224620  0.27443357    -0.06700
C485        C  0.47581209  0.61365598  0.24212270    -0.17900
C486        C  0.41928725  0.59776898  0.22114138     0.10500
S487        S  0.38477879  0.68814705  0.32712201    -0.32900
S488        S  0.44037260  0.55703816  0.18503539    -0.32900
H489        H  0.39391688  0.56701363  0.15546617     0.28500
H490        H  0.31728544  0.67525915  0.33273449     0.28500
H491        H  0.29932659  0.65406237  0.27113495     0.19100
H492        H  0.52463108  0.60121074  0.23383273     0.19100
C493        C  0.28866101  0.54605586  0.20732577    -0.06800
C494        C  0.28092093  0.52414083  0.17064408    -0.17900
C495        C  0.28317087  0.97981686  0.16574859     0.10400
C496        C  0.28894642  0.95393235  0.20006082    -0.06700
C497        C  0.30397273  0.97563248  0.23599572    -0.17900
C498        C  0.30730249  0.52005671  0.24013542     0.10500
S499        S  0.27886843  0.96243571  0.11447129    -0.32900
S500        S  0.33714199  0.54067972  0.28764276    -0.32900
H501        H  0.36981048  0.50375216  0.30033691     0.28500
H502        H  0.33807560  0.93832804  0.11488878     0.28500
H503        H  0.27560604  0.54100501  0.14342471     0.19100
H504        H  0.31219054  0.95715989  0.26230116     0.19100
C505        C  0.28001566  0.61472397  0.16569827    -0.06800
C506        C  0.33501988  0.63779991  0.14952625    -0.17900
C507        C  0.33366364  0.65515905  0.11178073     0.10400
C508        C  0.27281556  0.65533715  0.08982389    -0.06700
C509        C  0.21755005  0.63258929  0.10471325    -0.17900
C510        C  0.22016726  0.61160135  0.14114734     0.10500
S511        S  0.41228209  0.67697476  0.09428164    -0.32900
S512        S  0.14182969  0.58477925  0.15382950    -0.32900
H513        H  0.16355148  0.55876131  0.18437244     0.28500
H514        H  0.40907812  0.65466631  0.05796127     0.28500
H515        H  0.38127066  0.64307072  0.16570854     0.19100
H516        H  0.17057026  0.63175517  0.08799805     0.19100
C517        C  0.26022048  0.82751677  0.09205820    -0.06800
C518        C  0.20650829  0.85253457  0.10538774    -0.17900
C519        C  0.21265810  0.87924999  0.13887512     0.10400
C520        C  0.27584225  0.88186282  0.16057525    -0.06700
C521        C  0.32941547  0.85673061  0.14553062    -0.17900
C522        C  0.32208150  0.82960439  0.11301953     0.10500
S523        S  0.13556665  0.90723961  0.15126824    -0.32900
S524        S  0.39193588  0.79439142  0.10356251    -0.32900
H525        H  0.34966451  0.75854329  0.10224122     0.28500
H526        H  0.16487857  0.94320851  0.16855251     0.28500
H527        H  0.15861470  0.85106179  0.08961475     0.19100
H528        H  0.37717900  0.85447075  0.16051292     0.19100
C529        C  0.23184974  0.65244083  0.90786937    -0.06800
C530        C  0.16881574  0.63729362  0.89462458    -0.17900
C531        C  0.16164207  0.61390061  0.85916565     0.10400
C532        C  0.21744462  0.60909184  0.83268505    -0.06700
C533        C  0.28178419  0.61889817  0.84957316    -0.17900
C534        C  0.28980700  0.64012593  0.88608101     0.10500
S535        S  0.08014582  0.59028297  0.85190165    -0.32900
S536        S  0.37515751  0.65103935  0.90339580    -0.32900
H537        H  0.41023014  0.62734262  0.87458267     0.28500
H538        H  0.10705952  0.54920224  0.85064818     0.28500
H539        H  0.12418031  0.64340638  0.91229095     0.19100
H540        H  0.32728437  0.61108370  0.83360648     0.19100
C541        C  0.20525541  0.87624909  0.84188864    -0.06800
C542        C  0.19282896  0.83185179  0.84091429    -0.17900
C543        C  0.19246064  0.80732051  0.87462371     0.10400
C544        C  0.20622728  0.82605675  0.91145232    -0.06700
C545        C  0.20890914  0.87023561  0.91450311    -0.17900
C546        C  0.20284516  0.89569262  0.88061840     0.10500
S547        S  0.17843906  0.75142998  0.86861082    -0.32900
S548        S  0.18715107  0.95082167  0.89108871    -0.32900
H549        H  0.13468226  0.95495751  0.86333120     0.28500
H550        H  0.24457991  0.74191684  0.88116923     0.28500
H551        H  0.18625444  0.81501551  0.81332444     0.19100
H552        H  0.21345100  0.88496493  0.94356469     0.19100
O553        O  0.81144088  0.20000057  0.03646546    -0.73600
O554        O  0.77793657  0.28830078  0.95404024    -0.74600
O555        O  0.80105522  0.28858491  0.03666554    -0.63200
O556        O  0.79034391  0.19935196  0.95266011    -0.71600
O557        O  0.68003807  0.19317755  0.96091502    -0.71100
O558        O  0.69148715  0.28265236  0.04878698    -0.62400
O559        O  0.66731401  0.28315557  0.96449418    -0.74900
O560        O  0.70124493  0.19328757  0.04530445    -0.73700
Cu561      Cu  0.79876779  0.24422899  0.99459150     1.04600
Cu562      Cu  0.68098225  0.23788940  0.00515939     1.04300
C563        C  0.76179432  0.18350944  0.05491815     0.92600
C564        C  0.71723871  0.29917391  0.94602141     0.91800
C565        C  0.74961171  0.29856508  0.05731523     0.83900
C566        C  0.73415413  0.18238756  0.94255823     0.90200
C567        C  0.78529626  0.09641531  0.20870473    -0.03100
C568        C  0.78334329  0.40437543  0.20218110    -0.03100
C569        C  0.03442942  0.15691806  0.29955891    -0.03100
C570        C  0.53630979  0.34817982  0.29223074    -0.03100
O571        O  0.96034558  0.45020666  0.46128173    -0.73600
O572        O  0.93912453  0.04524364  0.53947700    -0.74600
O573        O  0.95017770  0.03845246  0.45541832    -0.63200
O574        O  0.94819951  0.45539788  0.54485880    -0.71600
O575        O  0.56165775  0.45900484  0.54879589    -0.71100
O576        O  0.56019564  0.04545677  0.46137131    -0.62400
O577        O  0.54911768  0.04903845  0.54598037    -0.74900
O578        O  0.57222032  0.45588789  0.46327243    -0.73700
Cu579      Cu  0.94620809  0.99725127  0.50042460     1.04600
Cu580      Cu  0.56493087  0.00244866  0.50501137     1.04300
C581        C  0.01806462  0.43978539  0.44765191     0.92600
C582        C  0.99116176  0.06210063  0.55593304     0.91800
C583        C  0.00597163  0.05480605  0.44420472     0.83900
C584        C  0.00380364  0.44390829  0.56082164     0.90200
C585        C  0.71278554  0.09146209  0.78826008    -0.03100
C586        C  0.71608488  0.39813239  0.80070144    -0.03100
C587        C  0.46503579  0.15832705  0.70247752    -0.03100
C588        C  0.96429201  0.35008162  0.70925586    -0.03100
C589        C  0.46077982  0.20830985  0.70499389    -0.06800
C590        C  0.93714757  0.23180246  0.67287191    -0.17900
C591        C  0.92885812  0.27614996  0.67491135     0.10400
C592        C  0.96285485  0.29995595  0.70516291    -0.06700
C593        C  0.48553952  0.27586860  0.73727152    -0.17900
C594        C  0.47214263  0.23273694  0.74047928     0.10500
S595        S  0.87111141  0.29996034  0.64016209    -0.32900
S596        S  0.46980813  0.21449260  0.79153767    -0.32900
H597        H  0.46301915  0.17085627  0.78584152     0.28500
H598        H  0.85183700  0.26296573  0.61939280     0.28500
H599        H  0.91914820  0.21578660  0.64649746     0.19100
H600        H  0.50884409  0.29076648  0.76291155     0.19100
C601        C  0.65322805  0.37999073  0.77669530    -0.06800
C602        C  0.59020351  0.39048089  0.79303129    -0.17900
C603        C  0.52928910  0.38525581  0.77291827     0.10400
C604        C  0.52750029  0.36269909  0.73573864    -0.06700
C605        C  0.59016119  0.34731303  0.72178656    -0.17900
C606        C  0.65135976  0.35321918  0.74200648     0.10500
S607        S  0.46280045  0.41616693  0.79512166    -0.32900
S608        S  0.71808237  0.31979236  0.72249438    -0.32900
H609        H  0.74201847  0.30413893  0.75839709     0.28500
H610        H  0.97861204  0.40728619  0.83424155     0.28500
H611        H  0.58970592  0.40824433  0.82053417     0.19100
H612        H  0.59084763  0.32802705  0.69503095     0.19100
C613        C  0.89512917  0.36117965  0.72962948    -0.06800
C614        C  0.88410622  0.34381555  0.76743155    -0.17900
C615        C  0.83298675  0.35683616  0.79304320     0.10400
C616        C  0.78270773  0.38542876  0.77925798    -0.06700
C617        C  0.79130372  0.40150104  0.74060459    -0.17900
C618        C  0.84269415  0.38767075  0.71489520     0.10500
S619        S  0.84623976  0.34094123  0.84392378    -0.32900
S620        S  0.82949602  0.39839334  0.66287649    -0.32900
H621        H  0.78645845  0.43343300  0.66765262     0.28500
H622        H  0.87088895  0.30020458  0.83490561     0.28500
H623        H  0.92242641  0.32487369  0.78068596     0.19100
H624        H  0.75224132  0.42170194  0.72878273     0.19100
C625        C  0.65326049  0.10999618  0.76258685    -0.06800
C626        C  0.61653266  0.14598601  0.77492603    -0.17900
C627        C  0.57689612  0.16740342  0.74729194     0.10400
C628        C  0.53674280  0.14297400  0.72053629    -0.06700
C629        C  0.57316354  0.10700876  0.70635759    -0.17900
C630        C  0.63605887  0.09470366  0.72354196     0.10500
S631        S  0.61928367  0.21489875  0.73074788    -0.32900
S632        S  0.68807686  0.05709957  0.69683406    -0.32900
H633        H  0.65021402  0.05659649  0.66142119     0.28500
H634        H  0.59398056  0.21446204  0.69192722     0.28500
H635        H  0.62964450  0.16293647  0.80174160     0.19100
H636        H  0.55484293  0.08894949  0.68124472     0.19100
C637        C  0.90247483  0.13862854  0.72643459    -0.06800
C638        C  0.85246274  0.16563837  0.74263447    -0.17900
C639        C  0.79624585  0.15174001  0.76390900     0.10400
C640        C  0.77908895  0.10772384  0.76586867    -0.06700
C641        C  0.82617593  0.08014206  0.74743383    -0.17900
C642        C  0.88660432  0.09467577  0.72907976     0.10500
S643        S  0.75218137  0.19330318  0.79025652    -0.32900
S644        S  0.93573631  0.05562594  0.70402327    -0.32900
H645        H  0.87896138  0.03866630  0.68397143     0.28500
H646        H  0.80676337  0.22180685  0.79441853     0.28500
H647        H  0.85502697  0.19924021  0.73867787     0.19100
H648        H  0.81600138  0.04658622  0.74623726     0.19100
C649        C  0.70756294  0.04149585  0.79213342    -0.06800
C650        C  0.76206726  0.02071042  0.81103110    -0.17900
C651        C  0.76678050  0.47639699  0.81660599     0.10400
C652        C  0.71554031  0.44880927  0.80045070    -0.06700
C653        C  0.66508253  0.46995534  0.77847246    -0.17900
C654        C  0.65345622  0.01380306  0.77939459     0.10500
S655        S  0.84018264  0.46001199  0.84405535    -0.32900
S656        S  0.56603153  0.02529295  0.76630258    -0.32900
H657        H  0.55571306  0.06563059  0.78122321     0.28500
H658        H  0.81539579  0.42197153  0.85729095     0.28500
H659        H  0.80396857  0.03943236  0.82222204     0.19100
H660        H  0.63022680  0.45291196  0.75962018     0.19100
C661        C  0.00139676  0.41823289  0.59698589    -0.06800
C662        C  0.98834040  0.44015583  0.63200611    -0.17900
C663        C  0.97981891  0.41928559  0.66775535     0.10400
C664        C  0.97919642  0.37419288  0.66950003    -0.06700
C665        C  0.50222998  0.35364175  0.63477436    -0.17900
C666        C  0.51175025  0.37494917  0.59878541     0.10500
S667        S  0.96761174  0.45319886  0.70949353    -0.32900
S668        S  0.53263254  0.34344687  0.55559816    -0.32900
H669        H  0.55062688  0.37644517  0.53031326     0.28500
H670        H  0.90616822  0.46840955  0.69446592     0.28500
H671        H  0.98448663  0.47439131  0.63152391     0.19100
H672        H  0.51291824  0.32021886  0.63486520     0.19100
C673        C  0.48014804  0.09540705  0.58667008    -0.06800
C674        C  0.91711811  0.09917885  0.60468344    -0.17900
C675        C  0.90626240  0.12473712  0.63822956     0.10400
C676        C  0.46217119  0.14420486  0.65740497    -0.06700
C677        C  0.52166115  0.14786028  0.63450963    -0.17900
C678        C  0.53261233  0.12230376  0.60073052     0.10500
S679        S  0.81845003  0.13342219  0.65055571    -0.32900
S680        S  0.61423398  0.12431053  0.57689611    -0.32900
H681        H  0.64937807  0.14463107  0.60816122     0.28500
H682        H  0.82736470  0.17515055  0.66414038     0.28700
H683        H  0.87447523  0.08186436  0.59221121     0.19100
H684        H  0.56298487  0.16698425  0.64565941     0.19100
C685        C  0.52224580  0.41075311  0.41241145    -0.06800
C686        C  0.58472543  0.39461782  0.39940655    -0.17900
C687        C  0.59228648  0.37384525  0.36212694     0.10400
C688        C  0.53492266  0.36897029  0.33574782    -0.06700
C689        C  0.97448123  0.38975774  0.34850646    -0.17900
C690        C  0.96535351  0.40631416  0.38635572     0.10500
S691        S  0.67860953  0.36151439  0.34787526    -0.32900
S692        S  0.88058186  0.42429058  0.39853270    -0.32900
H693        H  0.84536958  0.89793630  0.37145958     0.28500
H694        H  0.70704592  0.36188292  0.38616341     0.28500
H695        H  0.62886525  0.40008562  0.41791054     0.19100
H696        H  0.93296889  0.39606620  0.32926120     0.19100
C697        C  0.02015542  0.13525432  0.34094739    -0.06800
C698        C  0.50253525  0.09056760  0.33799198    -0.17900
C699        C  0.49528589  0.06479240  0.37079993     0.10400
C700        C  0.00682258  0.08235388  0.40917781    -0.06700
C701        C  0.01845500  0.12568137  0.41359629    -0.17900
C702        C  0.02116828  0.15289215  0.38084221     0.10500
S703        S  0.48031763  0.00946923  0.36190116    -0.32900
S704        S  0.02337478  0.20778198  0.39649119    -0.32900
H705        H  0.98136957  0.22473407  0.36762007     0.28500
H706        H  0.53923344  0.49795040  0.38603409     0.28500
H707        H  0.50053221  0.07466686  0.30946484     0.19100
H708        H  0.02337949  0.13870088  0.44335839     0.19100
C709        C  0.03847216  0.20702051  0.29893556    -0.06800
C710        C  0.00247145  0.22874219  0.26886943    -0.17900
C711        C  0.00713793  0.27228570  0.26325740     0.10400
C712        C  0.53686850  0.29804876  0.29371324    -0.06700
C713        C  0.57839807  0.27624470  0.32090109    -0.17900
C714        C  0.58633694  0.23187180  0.31980227     0.10500
S715        S  0.98682337  0.28965232  0.21359526    -0.32900
S716        S  0.66274704  0.21233954  0.34283598    -0.32900
H717        H  0.63993425  0.17186161  0.35088531     0.28500
H718        H  0.93185426  0.26182050  0.20744142     0.28500
H719        H  0.97729286  0.21133082  0.24540114     0.19100
H720        H  0.60882748  0.29324587  0.34190267     0.19100
C721        C  0.71966309  0.39007252  0.22665777    -0.06800
C722        C  0.67659954  0.41960014  0.24580014    -0.17900
C723        C  0.61953064  0.40753790  0.26758475     0.10400
C724        C  0.60115567  0.36394761  0.27010417    -0.06700
C725        C  0.64326879  0.33471408  0.25015473    -0.17900
C726        C  0.70052430  0.34661921  0.22921019     0.10500
S727        S  0.56822802  0.44930237  0.28907884    -0.32900
S728        S  0.74932231  0.30348459  0.20850047    -0.32900
H729        H  0.69194426  0.28324139  0.19212620     0.28500
H730        H  0.60820133  0.48426173  0.27859281     0.28500
H731        H  0.68477483  0.45293756  0.24274646     0.19100
H732        H  0.63306393  0.30126350  0.25036911     0.19100
C733        C  0.85029340  0.38971225  0.22468022    -0.06800
C734        C  0.84698025  0.36449728  0.25906654    -0.17900
C735        C  0.90398284  0.34782567  0.27792926     0.10400
C736        C  0.97020292  0.36222535  0.26770368    -0.06700
C737        C  0.97389864  0.38813511  0.23386742    -0.17900
C738        C  0.91677420  0.40266135  0.21341967     0.10500
S739        S  0.88858127  0.31133864  0.31808161    -0.32900
S740        S  0.93313233  0.43671833  0.17193039    -0.32900
H741        H  0.99540755  0.45310004  0.18572864     0.28500
H742        H  0.82408585  0.29772532  0.30523324     0.28500
H743        H  0.79963781  0.35739237  0.27290842     0.19100
H744        H  0.02188243  0.39638806  0.22132523     0.19100
C745        C  0.60196400  0.13973213  0.27915711    -0.06800
C746        C  0.62306746  0.16018444  0.24418596    -0.17900
C747        C  0.68456430  0.15126445  0.22509890     0.10400
C748        C  0.71976236  0.11244523  0.23239495    -0.06700
C749        C  0.69526468  0.09012647  0.26536086    -0.17900
C750        C  0.64606945  0.10632728  0.29159873     0.10500
S751        S  0.71488546  0.19389245  0.19487163    -0.32900
S752        S  0.65205050  0.08596477  0.34135290    -0.32900
H753        H  0.71983197  0.07252420  0.33949606     0.28500
H754        H  0.78221625  0.19155846  0.20801399     0.28500
H755        H  0.59431566  0.18633315  0.23286750     0.19100
H756        H  0.71597953  0.06029242  0.27294148     0.19100
C757        C  0.85222720  0.11265438  0.22998741    -0.06800
C758        C  0.84749652  0.14180184  0.26184330    -0.17900
C759        C  0.90319309  0.15505100  0.28451080     0.10400
C760        C  0.97027488  0.14264029  0.27407711    -0.06700
C761        C  0.97595665  0.11416690  0.24168625    -0.17900
C762        C  0.91952844  0.09825613  0.22067327     0.10500
S763        S  0.88465914  0.18876374  0.32653721    -0.32900
S764        S  0.94076837  0.05779634  0.18434017    -0.32900
H765        H  0.89447537  0.06802966  0.15476620     0.28500
H766        H  0.81735249  0.17555877  0.33226307     0.28500
H767        H  0.79934785  0.15467597  0.27040633     0.19100
H768        H  0.02481175  0.10184175  0.23332302     0.19100
C769        C  0.78931524  0.04612805  0.20696403    -0.06800
C770        C  0.78189995  0.02421453  0.17023998    -0.17900
C771        C  0.78197886  0.48009371  0.16586353     0.10400
C772        C  0.78819120  0.45413128  0.20007869    -0.06700
C773        C  0.80384074  0.47578464  0.23597467    -0.17900
C774        C  0.80768575  0.02003996  0.23977406     0.10500
S775        S  0.77628857  0.46273642  0.11464051    -0.32900
S776        S  0.84011252  0.04045465  0.28682843    -0.32900
H777        H  0.86613783  0.00232654  0.30141397     0.28500
H778        H  0.83623293  0.43931055  0.11451487     0.28500
H779        H  0.77753096  0.04107498  0.14296767     0.19100
H780        H  0.81219969  0.45730975  0.26227313     0.19100
C781        C  0.78040268  0.11487536  0.16541766    -0.06800
C782        C  0.83495415  0.13861991  0.14953076    -0.17900
C783        C  0.83370427  0.15582590  0.11172831     0.10400
C784        C  0.77317283  0.15529761  0.08947585    -0.06700
C785        C  0.71834921  0.13195481  0.10409027    -0.17900
C786        C  0.72099730  0.11106748  0.14056865     0.10500
S787        S  0.91205570  0.17825333  0.09449104    -0.32900
S788        S  0.64323396  0.08334586  0.15281232    -0.32900
H789        H  0.66428661  0.05870765  0.18450036     0.28500
H790        H  0.90973505  0.15585569  0.05820002     0.28500
H791        H  0.88080285  0.14448167  0.16595109     0.19100
H792        H  0.67165751  0.13058552  0.08711972     0.19100
C793        C  0.75900291  0.32748864  0.09205781    -0.06800
C794        C  0.70509423  0.35215530  0.10569348    -0.17900
C795        C  0.71146182  0.37905505  0.13904768     0.10400
C796        C  0.77497113  0.38207651  0.16040931    -0.06700
C797        C  0.82865386  0.35727732  0.14507139    -0.17900
C798        C  0.82122794  0.33010150  0.11261156     0.10500
S799        S  0.63426874  0.40678850  0.15170936    -0.32900
S800        S  0.89165600  0.29549805  0.10271326    -0.32900
H801        H  0.85005319  0.25935001  0.10184211     0.28500
H802        H  0.66361095  0.44293546  0.16867197     0.28500
H803        H  0.65693449  0.35032580  0.09022958     0.19100
H804        H  0.87668275  0.35531573  0.15978594     0.19100
C805        C  0.73128557  0.15228222  0.90779647    -0.06800
C806        C  0.66829103  0.13694018  0.89467231    -0.17900
C807        C  0.66119945  0.11329290  0.85935280     0.10400
C808        C  0.71685304  0.10865734  0.83276419    -0.06700
C809        C  0.78121549  0.11851698  0.84959635    -0.17900
C810        C  0.78925026  0.13987896  0.88605488     0.10500
S811        S  0.58038182  0.08864044  0.85265217    -0.32900
S812        S  0.87454524  0.15030984  0.90372679    -0.32900
H813        H  0.91008643  0.13215428  0.87180020     0.28500
H814        H  0.60846318  0.04784976  0.85197252     0.28500
H815        H  0.62369226  0.14295128  0.91239892     0.19100
H816        H  0.82666099  0.11042231  0.83370144     0.19100
C817        C  0.70627386  0.37653012  0.84228308    -0.06800
C818        C  0.69568769  0.33198965  0.84103555    -0.17900
C819        C  0.69434040  0.30740734  0.87464966     0.10400
C820        C  0.70489875  0.32625541  0.91173909    -0.06700
C821        C  0.70588393  0.37045096  0.91492335    -0.17900
C822        C  0.70130265  0.39592217  0.88096436     0.10500
S823        S  0.68307173  0.25133917  0.86832655    -0.32900
S824        S  0.68565335  0.45113012  0.89120383    -0.32900
H825        H  0.63375611  0.45543838  0.86312210     0.28500
H826        H  0.74948324  0.24294715  0.88115650     0.28500
H827        H  0.69136079  0.31516447  0.81330693     0.19100
H828        H  0.70851397  0.38515466  0.94406940     0.19100
O829        O  0.81198144  0.69939207  0.03601745    -0.73600
O830        O  0.77888005  0.78863499  0.95415900    -0.74600
O831        O  0.80250671  0.78802409  0.03700691    -0.63200
O832        O  0.79108337  0.69962042  0.95231266    -0.71600
O833        O  0.68084898  0.69317824  0.96068539    -0.71100
O834        O  0.69276704  0.78242685  0.04879793    -0.62400
O835        O  0.66826213  0.78311580  0.96441037    -0.74900
O836        O  0.70175805  0.69303653  0.04492219    -0.73700
Cu837      Cu  0.79969800  0.74410209  0.99450198     1.04600
Cu838      Cu  0.68188477  0.73779466  0.00499152     1.04300
C839        C  0.76219833  0.68291025  0.05437827     0.92600
C840        C  0.71810353  0.79931688  0.94601091     0.91800
C841        C  0.75101238  0.79804740  0.05759237     0.83900
C842        C  0.73498839  0.68251894  0.94228667     0.90200
C843        C  0.78522697  0.59637468  0.20839616    -0.03100
C844        C  0.78404672  0.90445403  0.20221740    -0.03100
C845        C  0.03401037  0.65712959  0.29985611    -0.03100
C846        C  0.53640887  0.84844992  0.29186854    -0.03100
O847        O  0.96077525  0.95007157  0.46192433    -0.73600
O848        O  0.93775134  0.54458401  0.53970449    -0.74600
O849        O  0.94960570  0.53872289  0.45565331    -0.63200
O850        O  0.94920620  0.95630310  0.54529027    -0.71600
O851        O  0.56182365  0.95895601  0.54848571    -0.71100
O852        O  0.56083356  0.54560972  0.46177658    -0.62400
O853        O  0.54947110  0.54898373  0.54633515    -0.74900
O854        O  0.57233051  0.95583502  0.46302055    -0.73700
Cu855      Cu  0.94533896  0.49693785  0.50026942     1.04600
Cu856      Cu  0.56509348  0.50247871  0.50533296     1.04300
C857        C  0.01839438  0.93936706  0.44835843     0.92600
C858        C  0.98972757  0.56153965  0.55613734     0.91800
C859        C  0.00542932  0.55523895  0.44465040     0.83900
C860        C  0.00475895  0.94478213  0.56124626     0.90200
C861        C  0.71384622  0.59126022  0.78831954    -0.03100
C862        C  0.71449369  0.89818447  0.80046545    -0.03100
C863        C  0.46592325  0.65832725  0.70272314    -0.03100
C864        C  0.96291554  0.85037642  0.70893705    -0.03100
C865        C  0.46165305  0.70828560  0.70495325    -0.06800
C866        C  0.93633830  0.73212632  0.67239986    -0.17900
C867        C  0.92760521  0.77643296  0.67457443     0.10400
C868        C  0.96167725  0.80027273  0.70474936    -0.06700
C869        C  0.48572069  0.77600919  0.73697152    -0.17900
C870        C  0.47288947  0.73286168  0.74033732     0.10500
S871        S  0.86977826  0.80008984  0.63981675    -0.32900
S872        S  0.47067048  0.71485661  0.79147956    -0.32900
H873        H  0.46377503  0.67119957  0.78601740     0.28500
H874        H  0.84074541  0.76232949  0.62504994     0.28500
H875        H  0.91859891  0.71622407  0.64588153     0.19100
H876        H  0.50889321  0.79107859  0.76256506     0.19100
C877        C  0.65166997  0.88016666  0.77646726    -0.06800
C878        C  0.58861744  0.89084776  0.79262944    -0.17900
C879        C  0.52784805  0.88553591  0.77238957     0.10400
C880        C  0.52637657  0.86289314  0.73525064    -0.06700
C881        C  0.58910218  0.84749124  0.72144117    -0.17900
C882        C  0.65000872  0.85320503  0.74192455     0.10500
S883        S  0.46106068  0.91641022  0.79430681    -0.32900
S884        S  0.71652372  0.81912287  0.72316052    -0.32900
H885        H  0.73916050  0.80356308  0.75939867     0.28500
H886        H  0.97767737  0.90710945  0.83429520     0.28500
H887        H  0.58805814  0.90877269  0.82006052     0.19100
H888        H  0.58998920  0.82814719  0.69472111     0.19100
C889        C  0.89363654  0.86136838  0.72924601    -0.06800
C890        C  0.88247986  0.84379858  0.76692089    -0.17900
C891        C  0.83109370  0.85647029  0.79249039     0.10400
C892        C  0.78096152  0.88529563  0.77888429    -0.06700
C893        C  0.78951379  0.90141184  0.74021227    -0.17900
C894        C  0.84109173  0.88777716  0.71451996     0.10500
S895        S  0.84338077  0.83930304  0.84306761    -0.32900
S896        S  0.82833380  0.89888717  0.66254788    -0.32900
H897        H  0.78668197  0.93454175  0.66762370     0.28500
H898        H  0.86941634  0.79904169  0.83351905     0.28500
H899        H  0.92080718  0.82480937  0.78010568     0.19100
H900        H  0.75043125  0.92160414  0.72838610     0.19100
C901        C  0.65418797  0.60978650  0.76272827    -0.06800
C902        C  0.61738496  0.64570564  0.77519457    -0.17900
C903        C  0.57767294  0.66723350  0.74767193     0.10400
C904        C  0.53769632  0.64295033  0.72072706    -0.06700
C905        C  0.57427693  0.60710518  0.70638315    -0.17900
C906        C  0.63705863  0.59465555  0.72362031     0.10500
S907        S  0.61990760  0.71488950  0.73142740    -0.32900
S908        S  0.68893964  0.55697632  0.69690533    -0.32900
H909        H  0.65198559  0.55736264  0.66117719     0.28500
H910        H  0.59552485  0.71418167  0.69239882     0.28500
H911        H  0.63051065  0.66257265  0.80205212     0.19100
H912        H  0.55602089  0.58912612  0.68119638     0.19100
C913        C  0.90270198  0.63879191  0.72607041    -0.06800
C914        C  0.85261391  0.66568178  0.74235569    -0.17900
C915        C  0.79679949  0.65167375  0.76387152     0.10400
C916        C  0.77995444  0.60761705  0.76585492    -0.06700
C917        C  0.82705301  0.58011675  0.74730806    -0.17900
C918        C  0.88719907  0.59478523  0.72873934     0.10500
S919        S  0.75294645  0.69315270  0.79053285    -0.32900
S920        S  0.93645845  0.55584481  0.70352430    -0.32900
H921        H  0.87953774  0.53811365  0.68421796     0.28500
H922        H  0.80731459  0.72187580  0.79422760     0.28500
H923        H  0.85479553  0.69927665  0.73830076     0.19100
H924        H  0.81708893  0.54653353  0.74620368     0.19100
C925        C  0.70887135  0.54131281  0.79223048    -0.06800
C926        C  0.76342956  0.52061892  0.81119482    -0.17900
C927        C  0.76545010  0.97646326  0.81626341     0.10400
C928        C  0.71413610  0.94891129  0.80012660    -0.06700
C929        C  0.66368209  0.97016408  0.77819398    -0.17900
C930        C  0.65483968  0.51356924  0.77954102     0.10500
S931        S  0.83881783  0.96008044  0.84374021    -0.32900
S932        S  0.56750324  0.52496479  0.76628703    -0.32900
H933        H  0.55689225  0.56522770  0.78130870     0.28500
H934        H  0.81571123  0.92084181  0.85477390     0.28500
H935        H  0.80532582  0.53938608  0.82232802     0.19100
H936        H  0.62881169  0.95319409  0.75929191     0.19100
C937        C  0.00196826  0.91905427  0.59728848    -0.06800
C938        C  0.98896027  0.94083955  0.63237903    -0.17900
C939        C  0.97907637  0.91973238  0.66787208     0.10400
C940        C  0.97797378  0.87462343  0.66931887    -0.06700
C941        C  0.50117233  0.85335095  0.63421861    -0.17900
C942        C  0.51102394  0.87460531  0.59822811     0.10500
S943        S  0.96556030  0.95334620  0.70967716    -0.32900
S944        S  0.53176417  0.84294531  0.55508761    -0.32900
H945        H  0.54256983  0.87573534  0.52824073     0.28500
H946        H  0.90482112  0.96880782  0.69391719     0.28500
H947        H  0.98578388  0.97510949  0.63210194     0.19100
H948        H  0.51154691  0.81989525  0.63430901     0.19100
C949        C  0.48054554  0.59521327  0.58707890    -0.06800
C950        C  0.91583821  0.59911067  0.60469266    -0.17900
C951        C  0.90531622  0.62502365  0.63804251     0.10400
C952        C  0.46273944  0.64397642  0.65775945    -0.06700
C953        C  0.52189892  0.64796104  0.63463225    -0.17900
C954        C  0.53274645  0.62249847  0.60078222     0.10500
S955        S  0.81764445  0.63408436  0.65051071    -0.32900
S956        S  0.61384175  0.62500903  0.57635779    -0.32900
H957        H  0.64779194  0.64932919  0.60550958     0.28500
H958        H  0.82695993  0.67580227  0.66402092     0.28700
H959        H  0.87309323  0.58170496  0.59245645     0.19100
H960        H  0.56304981  0.66730836  0.64566608     0.19100
C961        C  0.52255879  0.91062976  0.41216037    -0.06800
C962        C  0.58523549  0.89507656  0.39886103    -0.17900
C963        C  0.59275946  0.87441906  0.36152914     0.10400
C964        C  0.53519748  0.86930514  0.33532913    -0.06700
C965        C  0.97444720  0.88920697  0.34951603    -0.17900
C966        C  0.96531049  0.90532798  0.38751405     0.10500
S967        S  0.67900456  0.86197729  0.34710250    -0.32900
S968        S  0.88026470  0.92238652  0.40019227    -0.32900
H969        H  0.84542979  0.39929072  0.37032174     0.28500
H970        H  0.70884531  0.86482907  0.38495865     0.28500
H971        H  0.62942514  0.90077692  0.41725611     0.19100
H972        H  0.93281696  0.89557168  0.33038440     0.19100
C973        C  0.01957522  0.63564789  0.34129979    -0.06800
C974        C  0.50411802  0.59097245  0.33834147    -0.17900
C975        C  0.49721739  0.56515604  0.37115221     0.10400
C976        C  0.00644753  0.58286120  0.40964494    -0.06700
C977        C  0.01725621  0.62629025  0.41401608    -0.17900
C978        C  0.02016900  0.65341338  0.38117097     0.10500
S979        S  0.48395074  0.50968935  0.36226640    -0.32900
S980        S  0.02252190  0.70836558  0.39662900    -0.32900
H981        H  0.98039887  0.72516063  0.36772150     0.28500
H982        H  0.53555617  0.99716019  0.38542089     0.28500
H983        H  0.50241974  0.57506063  0.30981016     0.19100
H984        H  0.02164613  0.63941780  0.44376336     0.19100
C985        C  0.03808425  0.70719974  0.29917140    -0.06800
C986        C  0.00229769  0.72898511  0.26904871    -0.17900
C987        C  0.00713456  0.77256150  0.26353383     0.10400
C988        C  0.53716331  0.79839382  0.29356937    -0.06700
C989        C  0.57807538  0.77678999  0.32122353    -0.17900
C990        C  0.58659069  0.73246145  0.32011030     0.10500
S991        S  0.98772488  0.79032303  0.21384065    -0.32900
S992        S  0.66293744  0.71325020  0.34345480    -0.32900
H993        H  0.64093707  0.67241674  0.35068832     0.28500
H994        H  0.93613330  0.76062785  0.20557705     0.28500
H995        H  0.97731124  0.71157238  0.24552624     0.19100
H996        H  0.60770002  0.79390758  0.34256417     0.19100
C997        C  0.72004936  0.89020977  0.22644902    -0.06800
C998        C  0.67657939  0.91977358  0.24524510    -0.17900
C999        C  0.61966154  0.90770368  0.26711881     0.10400
C1000       C  0.60115828  0.86415971  0.26961469    -0.06700
C1001       C  0.64360852  0.83488389  0.24996018    -0.17900
C1002       C  0.70106838  0.84674970  0.22918863     0.10500
S1003       S  0.56881201  0.94964992  0.28850095    -0.32900
S1004       S  0.75034839  0.80353863  0.20906043    -0.32900
H1005       H  0.69331178  0.78331017  0.19226423     0.28500
H1006       H  0.61927991  0.98118893  0.28912632     0.28500
H1007       H  0.68401971  0.95318037  0.24181057     0.19100
H1008       H  0.63373370  0.80140896  0.25043273     0.19100
C1009       C  0.85074759  0.88994243  0.22503173    -0.06800
C1010       C  0.84714047  0.86486048  0.25948663    -0.17900
C1011       C  0.90399996  0.84809703  0.27843863     0.10400
C1012       C  0.97032087  0.86254091  0.26842840    -0.06700
C1013       C  0.97422935  0.88866529  0.23475438    -0.17900
C1014       C  0.91729149  0.90296898  0.21402168     0.10500
S1015       S  0.88826507  0.81136833  0.31836463    -0.32900
S1016       S  0.93414329  0.93692714  0.17257353    -0.32900
H1017       H  0.99485300  0.95451499  0.18748556     0.28500
H1018       H  0.82347394  0.79822171  0.30561499     0.28500
H1019       H  0.79967031  0.85784702  0.27322391     0.19100
H1020       H  0.02225508  0.89715683  0.22242108     0.19100
C1021       C  0.60279290  0.64023463  0.27927140    -0.06800
C1022       C  0.62412771  0.66087012  0.24441806    -0.17900
C1023       C  0.68536755  0.65166478  0.22514168     0.10400
C1024       C  0.71974410  0.61248189  0.23204892    -0.06700
C1025       C  0.69471567  0.58989740  0.26472654    -0.17900
C1026       C  0.64635142  0.60638781  0.29136243     0.10500
S1027       S  0.71605382  0.69405075  0.19471909    -0.32900
S1028       S  0.65337625  0.58658219  0.34134962    -0.32900
H1029       H  0.71426525  0.56405601  0.33726085     0.28500
H1030       H  0.78368758  0.69098904  0.20713220     0.28500
H1031       H  0.59579715  0.68727811  0.23328273     0.19100
H1032       H  0.71466641  0.55969198  0.27173784     0.19100
C1033       C  0.85219280  0.61278774  0.22970704    -0.06800
C1034       C  0.84729613  0.64198486  0.26156360    -0.17900
C1035       C  0.90292267  0.65567158  0.28410227     0.10400
C1036       C  0.96999979  0.64276212  0.27422768    -0.06700
C1037       C  0.97585659  0.61408053  0.24200496    -0.17900
C1038       C  0.91957379  0.59822308  0.22076128     0.10500
S1039       S  0.88403986  0.68897794  0.32637279    -0.32900
S1040       S  0.94107044  0.55731102  0.18491137    -0.32900
H1041       H  0.89402612  0.56647342  0.15542749     0.28500
H1042       H  0.82309135  0.70611262  0.31209240     0.28500
H1043       H  0.79887265  0.65377574  0.27084688     0.19100
H1044       H  0.02474834  0.60153966  0.23399188     0.19100
C1045       C  0.78901846  0.54607914  0.20677748    -0.06800
C1046       C  0.78063386  0.52409785  0.17016828    -0.17900
C1047       C  0.78352111  0.98019451  0.16587822     0.10400
C1048       C  0.78884144  0.95420024  0.20012096    -0.06700
C1049       C  0.80362223  0.97581050  0.23614699    -0.17900
C1050       C  0.80771239  0.52004833  0.23957059     0.10500
S1051       S  0.77916390  0.96283687  0.11460750    -0.32900
S1052       S  0.83957374  0.54071970  0.28667118    -0.32900
H1053       H  0.86322474  0.50251368  0.30239637     0.28500
H1054       H  0.83814367  0.93851033  0.11506090     0.28500
H1055       H  0.77550935  0.54088061  0.14290108     0.19100
H1056       H  0.81138107  0.95733459  0.26251365     0.19100
C1057       C  0.78025882  0.61458128  0.16498512    -0.06800
C1058       C  0.83547022  0.63724033  0.14852473    -0.17900
C1059       C  0.83425234  0.65401955  0.11053462     0.10400
C1060       C  0.77326139  0.65442264  0.08876749    -0.06700
C1061       C  0.71784112  0.63199746  0.10386222    -0.17900
C1062       C  0.72038279  0.61131293  0.14044099     0.10500
S1063       S  0.91321432  0.67467679  0.09234300    -0.32900
S1064       S  0.64192439  0.58469713  0.15326883    -0.32900
H1065       H  0.66353315  0.55886069  0.18398110     0.28500
H1066       H  0.90821272  0.65249353  0.05600797     0.28500
H1067       H  0.88185949  0.64245286  0.16457563     0.19100
H1068       H  0.67078155  0.63123659  0.08722126     0.19100
C1069       C  0.76037022  0.82684981  0.09244771    -0.06800
C1070       C  0.70680200  0.85211261  0.10554435    -0.17900
C1071       C  0.71306411  0.87919940  0.13876440     0.10400
C1072       C  0.77621973  0.88195810  0.16048579    -0.06700
C1073       C  0.82975697  0.85662154  0.14564929    -0.17900
C1074       C  0.82222380  0.82901141  0.11344530     0.10500
S1075       S  0.63603266  0.90740704  0.15083867    -0.32900
S1076       S  0.89185177  0.79348480  0.10432300    -0.32900
H1077       H  0.84958002  0.75762766  0.10252495     0.28500
H1078       H  0.66535119  0.94341389  0.16803047     0.28500
H1079       H  0.65893512  0.85060188  0.08974522     0.19100
H1080       H  0.87756297  0.85458610  0.16065247     0.19100
C1081       C  0.73231601  0.65233044  0.90762250    -0.06800
C1082       C  0.66945139  0.63658411  0.89472863    -0.17900
C1083       C  0.66239903  0.61288964  0.85945141     0.10400
C1084       C  0.71798902  0.60841831  0.83280249    -0.06700
C1085       C  0.78234368  0.61850444  0.84951151    -0.17900
C1086       C  0.79033165  0.64017479  0.88579497     0.10500
S1087       S  0.58157149  0.58824569  0.85273292    -0.32900
S1088       S  0.87563903  0.65146882  0.90301321    -0.32900
H1089       H  0.91117744  0.63362096  0.87093587     0.28500
H1090       H  0.60962251  0.54745136  0.85201202     0.28500
H1091       H  0.62489756  0.64242613  0.91254185     0.19100
H1092       H  0.82778747  0.61048751  0.83357964     0.19100
C1093       C  0.70466291  0.87665618  0.84215434    -0.06800
C1094       C  0.69255013  0.83223296  0.84115671    -0.17900
C1095       C  0.69222369  0.80767999  0.87484312     0.10400
C1096       C  0.70540736  0.82644534  0.91173018    -0.06700
C1097       C  0.70754216  0.87064741  0.91479831    -0.17900
C1098       C  0.70173300  0.89609929  0.88087343     0.10500
S1099       S  0.67938166  0.75169667  0.86868962    -0.32900
S1100       S  0.68605999  0.95125785  0.89122437    -0.32900
H1101       H  0.63366893  0.95533617  0.86340340     0.28500
H1102       H  0.74575015  0.74269094  0.88118726     0.28500
H1103       H  0.68633074  0.81538096  0.81355646     0.19100
H1104       H  0.71167957  0.88538882  0.94387249     0.19100
loop_ 
_geom_bond_atom_site_label_1 
_geom_bond_atom_site_label_2 
_geom_bond_distance 
_geom_bond_site_symmetry_2 
_ccdc_geom_bond_type 
O1           Cu9   2.017   1_554  S
O1           C11   1.278       .  A
O2           Cu9   2.011       .  S
O2           C12   1.278       .  A
O3           Cu9   1.985   1_554  S
O3           C13   1.274       .  A
O4           Cu9   1.997       .  S
O4           C14   1.274       .  A
O5          Cu10   2.044   1_556  S
O5           C14   1.284       .  A
O6          Cu10   2.039       .  S
O6           C13   1.282       .  A
O7          Cu10   2.013   1_556  S
O7           C12   1.276       .  A
O8          Cu10   2.007       .  S
O8           C11   1.278       .  A
Cu9         Cu10   2.364   1_556  S
C11         C232   1.494       .  S
C12         C268   1.470       .  S
C13         C241   1.489       .  S
C14         C253   1.502       .  S
C15         C196   1.604       .  S
C15         C205   1.583       .  S
C15         C217   1.591       .  S
C15         C229   1.584       .  S
C16         C169   1.577       .  S
C16         C181   1.594       .  S
C16         C220   1.578       .  S
C16         C244   1.577       .  S
C17         C145   1.588       .  S
C17         C157   1.586       .  S
C17         C208   1.589       .  S
C17         C745   1.602       .  S
C18         C136   1.602       .  S
C18         C160   1.586       .  S
C18         C172   1.569       .  S
C18         C736   1.588   1_455  S
O19        Cu303   1.991       .  S
O19          C29   1.275       .  A
O20         Cu27   2.007   1_545  S
O20          C30   1.278       .  A
O21         Cu27   2.015   1_545  S
O21          C31   1.277       .  A
O22        Cu303   2.010       .  S
O22          C32   1.277       .  A
O23        Cu304   2.029       .  S
O23         C584   1.279       .  A
O24         Cu28   2.025       .  S
O24         C583   1.279       .  A
O25         Cu28   2.034       .  S
O25         C582   1.281   1_455  A
O26        Cu304   2.037       .  S
O26         C581   1.280       .  A
Cu27        O295   1.991       .  S
Cu27        O298   2.007       .  S
Cu27       Cu580   2.365   1_565  S
Cu28        O299   2.028   1_545  S
Cu28        O302   2.036   1_545  S
Cu28       Cu579   2.365   1_445  S
C29         O578   1.281       .  A
C29         C685   1.499       .  S
C30         O577   1.281       .  A
C30         C673   1.498       .  S
C31         O576   1.278       .  A
C31         C148   1.476       .  S
C32         O575   1.279       .  A
C32         C109   1.474       .  S
C33          C73   1.575       .  S
C33          C88   1.603       .  S
C33          C97   1.591       .  S
C33         C256   1.593       .  S
C34          C49   1.581       .  S
C34          C64   1.558       .  S
C34         C100   1.605       .  S
C34         C265   1.584       .  S
C35          C37   1.583       .  S
C35          C76   1.617   1_655  S
C35         C124   1.580       .  S
C35         C637   1.605       .  S
C36          C40   1.590       .  S
C36          C61   1.572       .  S
C36         C112   1.579       .  S
C36         C604   1.576       .  S
C37          C42   1.433       .  A
C37         C590   1.422       .  A
C38          C39   1.413       .  A
C38         C589   1.422       .  A
C38          H47   1.077       .  S
C39          C40   1.425       .  A
C39          S43   1.804       .  S
C40         C593   1.417       .  A
C41          C42   1.394       .  A
C41         C592   1.417       .  A
C41          H48   1.080   1_655  S
C42          S44   1.826       .  S
S43          H46   1.407       .  S
S44          H45   1.397       .  S
C49          C50   1.403       .  A
C49          C54   1.437       .  A
C50          C51   1.387       .  A
C50          H59   1.080       .  S
C51          C52   1.436       .  A
C51          S55   1.800   1_455  S
C52         C588   1.576   1_455  S
C52          C53   1.412       .  A
C53          C54   1.396       .  A
C53          H60   1.083       .  S
C54          S56   1.813       .  S
S55         H610   1.409       .  S
S56          H57   1.397       .  S
H58         S607   1.409       .  S
C61          C62   1.413       .  A
C61          C66   1.426       .  A
C62          C63   1.392       .  A
C62          H71   1.067       .  S
C63          C64   1.427       .  A
C63          S67   1.814       .  S
C64          C65   1.418       .  A
C65          C66   1.407       .  A
C65          H72   1.081       .  S
C66          S68   1.813       .  S
S67          H70   1.409       .  S
S68          H69   1.406       .  S
C73          C74   1.411       .  A
C73          C78   1.436       .  A
C74          C75   1.397       .  A
C74          H83   1.076       .  S
C75          C76   1.418       .  A
C75          S79   1.813       .  S
C76          C77   1.426       .  A
C77          C78   1.425       .  A
C77          H84   1.077       .  S
C78          S80   1.809       .  S
S79          H82   1.400       .  S
S80          H81   1.407       .  S
C85         C587   1.605       .  S
C85          C86   1.415       .  A
C85          C90   1.428       .  A
C86          C87   1.399       .  A
C86          H95   1.074       .  S
C87          C88   1.434       .  A
C87          S91   1.807       .  S
C88          C89   1.418       .  A
C89          C90   1.426       .  A
C89          H96   1.079       .  S
C90          S92   1.783       .  S
S91          H94   1.408       .  S
S92          H93   1.408       .  S
C97          C98   1.417       .  A
C97         C102   1.440       .  A
C98         C375   1.415   1_545  A
C98         H107   1.080       .  S
C99         C100   1.435       .  A
C99         C374   1.415       .  A
C99         S103   1.799       .  S
C100        C101   1.415       .  A
C101        C378   1.396       .  A
C101        H108   1.074       .  S
C102        C377   1.395   1_545  A
C102        S104   1.819       .  S
S103        H106   1.378       .  S
S104        H105   1.381       .  S
C109        C110   1.389       .  A
C109        C666   1.410       .  A
C110        C111   1.394       .  A
C110        H119   1.086       .  S
C111        C112   1.428       .  A
C111        S115   1.778       .  S
C112        C665   1.422       .  A
C113        C114   1.412       .  A
C113        C664   1.422   1_455  A
C113        H120   1.079       .  S
C114        C661   1.411       .  A
C114        S116   1.806       .  S
S115        H118   1.403       .  S
S116        H117   1.403       .  S
C121        C582   1.496       .  S
C121        C126   1.414   1_655  A
C121        C674   1.405       .  A
C122        C123   1.402       .  A
C122        C673   1.406       .  A
C122        H131   1.083       .  S
C123        C676   1.430       .  A
C123        S127   1.807       .  S
C124        C125   1.416   1_655  A
C124        C675   1.430       .  A
C125        C126   1.408       .  A
C125        H132   1.077       .  S
C126        S128   1.808       .  S
S127        H130   1.401       .  S
S128        H129   1.407       .  S
C133        C581   1.499       .  S
C133        C134   1.407       .  A
C133        C690   1.409   1_455  A
C134        C135   1.420       .  A
C134        H143   1.082       .  S
C135        C136   1.444       .  A
C135        S139   1.818       .  S
C136        C689   1.420   1_455  A
C137        C138   1.387       .  A
C137        C688   1.420       .  A
C137        H144   1.065       .  S
C138        C685   1.409       .  A
C138        S140   1.817       .  S
S139        H142   1.406       .  S
S140        H417   1.409       .  S
H141        S416   1.408       .  S
C145        C150   1.451       .  A
C145        C698   1.427       .  A
C146        C147   1.393   1_455  A
C146        C697   1.428       .  A
C146        H155   1.081   1_455  S
C147        C700   1.397   1_655  A
C147        S151   1.795       .  S
C148        C149   1.394       .  A
C148        C699   1.397       .  A
C149        C150   1.410       .  A
C149        H156   1.085       .  S
C150        S152   1.808       .  S
S151        H430   1.405   1_645  S
S152        H153   1.391       .  S
H154        S427   1.406   1_455  S
C157        C158   1.422       .  A
C157        C714   1.426       .  A
C158        C159   1.395       .  A
C158        H167   1.077       .  S
C159        C712   1.430       .  A
C159        S163   1.815       .  S
C160        C161   1.416       .  A
C160        C711   1.430       .  A
C161        C162   1.413       .  A
C161        H168   1.066       .  S
C162        C709   1.426       .  A
C162        S164   1.810       .  S
S163        H166   1.408       .  S
S164        H165   1.387       .  S
C169        C170   1.418       .  A
C169        C174   1.427       .  A
C170        C171   1.403       .  A
C170        H179   1.074       .  S
C171        C172   1.427       .  A
C171        S175   1.812       .  S
C172        C173   1.413       .  A
C173        C174   1.391       .  A
C173        H180   1.076       .  S
C174        S176   1.808       .  S
S175        H178   1.408       .  S
S176        H177   1.407       .  S
C181        C182   1.419       .  A
C181        C186   1.428       .  A
C182        C183   1.400       .  A
C182        H191   1.072       .  S
C183        C184   1.429       .  A
C183        S187   1.818       .  S
C184        C570   1.588       .  S
C184        C185   1.417       .  A
C185        C186   1.401       .  A
C185        H192   1.073       .  S
C186        S188   1.808       .  S
S187        H190   1.408       .  S
S188        H189   1.408       .  S
C193        C569   1.604       .  S
C193        C194   1.419       .  A
C193        C198   1.437       .  A
C194        C195   1.406       .  A
C194        H203   1.077       .  S
C195        C196   1.436       .  A
C195        S199   1.804       .  S
C196        C197   1.413       .  A
C197        C198   1.412       .  A
C197        H204   1.065       .  S
C198        S200   1.811       .  S
S199        H202   1.402       .  S
S200        H201   1.406       .  S
C205        C206   1.411       .  A
C205        C210   1.442       .  A
C206        C207   1.397       .  A
C206        H215   1.074       .  S
C207        C208   1.428       .  A
C207        S211   1.804       .  S
C208        C209   1.412       .  A
C209        C210   1.406       .  A
C209        H216   1.080       .  S
C210        S212   1.813       .  S
S211        H214   1.407       .  S
S212        H213   1.392       .  S
C217        C218   1.418       .  A
C217        C222   1.436       .  A
C218        C495   1.397   1_545  A
C218        H227   1.074       .  S
C219        C220   1.431       .  A
C219        C494   1.398       .  A
C219        S223   1.811       .  S
C220        C221   1.416       .  A
C221        C498   1.404       .  A
C221        H228   1.082       .  S
C222        C497   1.404   1_545  A
C222        S224   1.820       .  S
S223        H226   1.398       .  S
S224        H225   1.406       .  S
C229        C230   1.423       .  A
C229        C234   1.443       .  A
C230        C231   1.394       .  A
C230        H239   1.073       .  S
C231        C232   1.409       .  A
C231        S235   1.803       .  S
C232        C233   1.404       .  A
C233        C234   1.406       .  A
C233        H240   1.084       .  S
C234        S236   1.818       .  S
S235        H238   1.408       .  S
S236        H237   1.394       .  S
C241        C242   1.398       .  A
C241        C246   1.410       .  A
C242        C243   1.407       .  A
C242        H251   1.084       .  S
C243        C244   1.446       .  A
C243        S247   1.812       .  S
C244        C245   1.418       .  A
C245        C246   1.391       .  A
C245        H252   1.071       .  S
C246        S248   1.803       .  S
S247        H250   1.394       .  S
S248        H249   1.406       .  S
C253        C254   1.402       .  A
C253        C258   1.417       .  A
C254        C255   1.405       .  A
C254        H263   1.084       .  S
C255        C256   1.431       .  A
C255        S259   1.787       .  S
C256        C257   1.421       .  A
C257        C258   1.404       .  A
C257        H264   1.078       .  S
C258        S260   1.812       .  S
S259        H262   1.405       .  S
S260        H261   1.407       .  S
C265        C266   1.424       .  A
C265        C270   1.439       .  A
C266        C267   1.385       .  A
C266        H275   1.074       .  S
C267        C268   1.395       .  A
C267        S271   1.796       .  S
C268        C269   1.400       .  A
C269        C270   1.413       .  A
C269        H276   1.084       .  S
C270        S272   1.802       .  S
S271        H274   1.407       .  S
S272        H273   1.401       .  S
O277       Cu285   2.019   1_554  S
O277        C287   1.278       .  A
O278       Cu285   2.012       .  S
O278        C288   1.278       .  A
O279       Cu285   1.984   1_554  S
O279        C289   1.274       .  A
O280       Cu285   1.995       .  S
O280        C290   1.274       .  A
O281       Cu286   2.042   1_556  S
O281        C290   1.283       .  A
O282       Cu286   2.038       .  S
O282        C289   1.282       .  A
O283       Cu286   2.013   1_556  S
O283        C288   1.277       .  A
O284       Cu286   2.009       .  S
O284        C287   1.278       .  A
Cu285      Cu286   2.364   1_556  S
C287        C508   1.495       .  S
C288        C544   1.470       .  S
C289        C517   1.488       .  S
C290        C529   1.502       .  S
C291        C472   1.604       .  S
C291        C481   1.584       .  S
C291        C493   1.591       .  S
C291        C505   1.584       .  S
C292        C445   1.578       .  S
C292        C457   1.595       .  S
C292        C496   1.577       .  S
C292        C520   1.576       .  S
C293        C421   1.589       .  S
C293        C433   1.586       .  S
C293       C1021   1.604       .  S
C293        C484   1.590       .  S
C294        C412   1.601       .  S
C294        C436   1.585       .  S
C294        C448   1.570       .  S
C294       C1012   1.588   1_455  S
O295        C305   1.275       .  A
O296       Cu303   2.004       .  S
O296        C306   1.278       .  A
O297       Cu303   2.018       .  S
O297        C307   1.278       .  A
O298        C308   1.276       .  A
O299        C860   1.279       .  A
O300       Cu304   2.025       .  S
O300        C859   1.279       .  A
O301       Cu304   2.033       .  S
O301        C858   1.281   1_455  A
O302        C857   1.280       .  A
Cu303      Cu856   2.365       .  S
Cu304      Cu855   2.365   1_455  S
C305        O854   1.280       .  A
C305        C961   1.499       .  S
C306        O853   1.281       .  A
C306        C949   1.496       .  S
C307        O852   1.278       .  A
C307        C424   1.477       .  S
C308        O851   1.279       .  A
C308        C385   1.473       .  S
C309        C349   1.577       .  S
C309        C364   1.602       .  S
C309        C373   1.592       .  S
C309        C532   1.593       .  S
C310        C325   1.581       .  S
C310        C340   1.558       .  S
C310        C376   1.605       .  S
C310        C541   1.584       .  S
C311        C313   1.583       .  S
C311        C352   1.618   1_655  S
C311        C913   1.604       .  S
C311        C400   1.579       .  S
C312        C316   1.589       .  S
C312        C880   1.575       .  S
C312        C337   1.571       .  S
C312        C388   1.579       .  S
C313        C866   1.422       .  A
C313        C318   1.433       .  A
C314        C865   1.422       .  A
C314        C315   1.413       .  A
C314        H323   1.077       .  S
C315        C316   1.424       .  A
C315        S319   1.805       .  S
C316        C869   1.417       .  A
C317        C868   1.417       .  A
C317        C318   1.393       .  A
C317        H324   1.080   1_655  S
C318        S320   1.826       .  S
S319        H322   1.407       .  S
S320        H321   1.396       .  S
C325        C326   1.403       .  A
C325        C330   1.436       .  A
C326        C327   1.388       .  A
C326        H335   1.079       .  S
C327        C328   1.436       .  A
C327        S331   1.800   1_455  S
C328        C864   1.576   1_455  S
C328        C329   1.413       .  A
C329        C330   1.396       .  A
C329        H336   1.083       .  S
C330        S332   1.814       .  S
S331        H886   1.409       .  S
S332        H333   1.397       .  S
H334        S883   1.409       .  S
C337        C338   1.413       .  A
C337        C342   1.426       .  A
C338        C339   1.392       .  A
C338        H347   1.067       .  S
C339        C340   1.427       .  A
C339        S343   1.814       .  S
C340        C341   1.419       .  A
C341        C342   1.407       .  A
C341        H348   1.081       .  S
C342        S344   1.812       .  S
S343        H346   1.409       .  S
S344        H345   1.407       .  S
C349        C350   1.412       .  A
C349        C354   1.437       .  A
C350        C351   1.398       .  A
C350        H359   1.076       .  S
C351        C352   1.418       .  A
C351        S355   1.813       .  S
C352        C353   1.427       .  A
C353        C354   1.426       .  A
C353        H360   1.077       .  S
C354        S356   1.808       .  S
S355        H358   1.401       .  S
S356        H357   1.407       .  S
C361        C863   1.603       .  S
C361        C362   1.416       .  A
C361        C366   1.427       .  A
C362        C363   1.398       .  A
C362        H371   1.073       .  S
C363        C364   1.434       .  A
C363        S367   1.808       .  S
C364        C365   1.418       .  A
C365        C366   1.425       .  A
C365        H372   1.079       .  S
C366        S368   1.782       .  S
S367        H370   1.408       .  S
S368        H369   1.408       .  S
C373        C374   1.418       .  A
C373        C378   1.439       .  A
C374        H383   1.080       .  S
C375        C376   1.436       .  A
C375        S379   1.798       .  S
C376        C377   1.415       .  A
C377        H384   1.074       .  S
C378        S380   1.818       .  S
S379        H382   1.377       .  S
S380        H381   1.381       .  S
C385        C386   1.388       .  A
C385        C942   1.410       .  A
C386        C387   1.393       .  A
C386        H395   1.086       .  S
C387        C388   1.428       .  A
C387        S391   1.778       .  S
C388        C941   1.422       .  A
C389        C940   1.422   1_455  A
C389        C390   1.411       .  A
C389        H396   1.078       .  S
C390        C937   1.410       .  A
C390        S392   1.806       .  S
S391        H394   1.402       .  S
S392        H393   1.403       .  S
C397        C858   1.496       .  S
C397        C950   1.405       .  A
C397        C402   1.414   1_655  A
C398        C949   1.405       .  A
C398        C399   1.401       .  A
C398        H407   1.083       .  S
C399        C952   1.430       .  A
C399        S403   1.807       .  S
C400        C951   1.430       .  A
C400        C401   1.415   1_655  A
C401        C402   1.407       .  A
C401        H408   1.078       .  S
C402        S404   1.808       .  S
S403        H406   1.401       .  S
S404        H405   1.407       .  S
C409        C857   1.498       .  S
C409        C410   1.407       .  A
C409        C966   1.408   1_455  A
C410        C411   1.420       .  A
C410        H419   1.082       .  S
C411        C412   1.444       .  A
C411        S415   1.818       .  S
C412        C965   1.420   1_455  A
C413        C964   1.419       .  A
C413        C414   1.388       .  A
C413        H420   1.065       .  S
C414        C961   1.409       .  A
C414        S416   1.817       .  S
S415        H418   1.406       .  S
C421        C974   1.427       .  A
C421        C426   1.451       .  A
C422        C973   1.426       .  A
C422        C423   1.392   1_455  A
C422        H431   1.081       .  S
C423        C976   1.397   1_655  A
C423        S427   1.793       .  S
C424        C975   1.397       .  A
C424        C425   1.394       .  A
C425        C426   1.411       .  A
C425        H432   1.085       .  S
C426        S428   1.808       .  S
S428        H429   1.391       .  S
C433        C434   1.422       .  A
C433        C990   1.426       .  A
C434        C435   1.395       .  A
C434        H443   1.077       .  S
C435        C988   1.429       .  A
C435        S439   1.816       .  S
C436        C987   1.430       .  A
C436        C437   1.415       .  A
C437        C438   1.411       .  A
C437        H444   1.066       .  S
C438        C985   1.425       .  A
C438        S440   1.809       .  S
S439        H442   1.408       .  S
S440        H441   1.387       .  S
C445        C446   1.418       .  A
C445        C450   1.427       .  A
C446        C447   1.404       .  A
C446        H455   1.073       .  S
C447        C448   1.427       .  A
C447        S451   1.812       .  S
C448        C449   1.413       .  A
C449        C450   1.391       .  A
C449        H456   1.076       .  S
C450        S452   1.807       .  S
S451        H454   1.408       .  S
S452        H453   1.407       .  S
C457        C458   1.419       .  A
C457        C462   1.429       .  A
C458        C459   1.401       .  A
C458        H467   1.072       .  S
C459        C460   1.430       .  A
C459        S463   1.819       .  S
C460        C846   1.589       .  S
C460        C461   1.416       .  A
C461        C462   1.401       .  A
C461        H468   1.073       .  S
C462        S464   1.807       .  S
S463        H466   1.408       .  S
S464        H465   1.408       .  S
C469        C845   1.605       .  S
C469        C470   1.418       .  A
C469        C474   1.438       .  A
C470        C471   1.406       .  A
C470        H479   1.077       .  S
C471        C472   1.436       .  A
C471        S475   1.805       .  S
C472        C473   1.413       .  A
C473        C474   1.413       .  A
C473        H480   1.063       .  S
C474        S476   1.813       .  S
S475        H478   1.402       .  S
S476        H477   1.406       .  S
C481        C482   1.411       .  A
C481        C486   1.442       .  A
C482        C483   1.397       .  A
C482        H491   1.075       .  S
C483        C484   1.428       .  A
C483        S487   1.803       .  S
C484        C485   1.412       .  A
C485        C486   1.407       .  A
C485        H492   1.080       .  S
C486        S488   1.813       .  S
S487        H490   1.407       .  S
S488        H489   1.393       .  S
C493        C494   1.418       .  A
C493        C498   1.435       .  A
C494        H503   1.073       .  S
C495        C496   1.432       .  A
C495        S499   1.811       .  S
C496        C497   1.416       .  A
C497        H504   1.081       .  S
C498        S500   1.818       .  S
S499        H502   1.398       .  S
S500        H501   1.407       .  S
C505        C506   1.422       .  A
C505        C510   1.443       .  A
C506        C507   1.394       .  A
C506        H515   1.074       .  S
C507        C508   1.409       .  A
C507        S511   1.803       .  S
C508        C509   1.404       .  A
C509        C510   1.406       .  A
C509        H516   1.084       .  S
C510        S512   1.818       .  S
S511        H514   1.408       .  S
S512        H513   1.395       .  S
C517        C518   1.398       .  A
C517        C522   1.410       .  A
C518        C519   1.407       .  A
C518        H527   1.084       .  S
C519        C520   1.446       .  A
C519        S523   1.812       .  S
C520        C521   1.418       .  A
C521        C522   1.391       .  A
C521        H528   1.071       .  S
C522        S524   1.803       .  S
S523        H526   1.394       .  S
S524        H525   1.406       .  S
C529        C530   1.402       .  A
C529        C534   1.417       .  A
C530        C531   1.405       .  A
C530        H539   1.084       .  S
C531        C532   1.430       .  A
C531        S535   1.787       .  S
C532        C533   1.422       .  A
C533        C534   1.404       .  A
C533        H540   1.078       .  S
C534        S536   1.812       .  S
S535        H538   1.405       .  S
S536        H537   1.407       .  S
C541        C542   1.424       .  A
C541        C546   1.439       .  A
C542        C543   1.386       .  A
C542        H551   1.074       .  S
C543        C544   1.395       .  A
C543        S547   1.797       .  S
C544        C545   1.400       .  A
C545        C546   1.412       .  A
C545        H552   1.084       .  S
C546        S548   1.802       .  S
S547        H550   1.406       .  S
S548        H549   1.401       .  S
O553       Cu561   2.017   1_554  S
O553        C563   1.278       .  A
O554       Cu561   2.009       .  S
O554        C564   1.277       .  A
O555       Cu561   1.983   1_554  S
O555        C565   1.274       .  A
O556       Cu561   1.997       .  S
O556        C566   1.274       .  A
O557       Cu562   2.043   1_556  S
O557        C566   1.283       .  A
O558       Cu562   2.039       .  S
O558        C565   1.282       .  A
O559       Cu562   2.014   1_556  S
O559        C564   1.277       .  A
O560       Cu562   2.009       .  S
O560        C563   1.278       .  A
Cu561      Cu562   2.364   1_556  S
C563        C784   1.495       .  S
C564        C820   1.469       .  S
C565        C793   1.488       .  S
C566        C805   1.502       .  S
C567        C748   1.605       .  S
C567        C757   1.582       .  S
C567        C769   1.593       .  S
C567        C781   1.584       .  S
C568        C721   1.577       .  S
C568        C733   1.595       .  S
C568        C772   1.578       .  S
C568        C796   1.576       .  S
C569        C697   1.591       .  S
C569        C709   1.586       .  S
C569        C760   1.589   1_455  S
C570        C688   1.602       .  S
C570        C712   1.587       .  S
C570        C724   1.570       .  S
O571       Cu855   1.990       .  S
O571        C581   1.275   1_655  A
O572       Cu579   2.003   1_545  S
O572        C582   1.278       .  A
O573       Cu579   2.016   1_545  S
O573        C583   1.277   1_655  A
O574       Cu855   2.012       .  S
O574        C584   1.277   1_655  A
O575       Cu856   2.025       .  S
O576       Cu580   2.020       .  S
O577       Cu580   2.033       .  S
O578       Cu856   2.038       .  S
Cu579       O847   1.988       .  S
Cu579       O850   2.007       .  S
Cu580       O851   2.026   1_545  S
Cu580       O854   2.038   1_545  S
C583        C700   1.478       .  S
C584        C661   1.476       .  S
C585        C625   1.576       .  S
C585        C640   1.602       .  S
C585        C649   1.590       .  S
C585        C808   1.593       .  S
C586        C601   1.581       .  S
C586        C616   1.557       .  S
C586        C652   1.603       .  S
C586        C817   1.582       .  S
C587        C589   1.584       .  S
C587        C628   1.618       .  S
C587        C676   1.581       .  S
C588        C592   1.589       .  S
C588        C613   1.572       .  S
C588        C664   1.581       .  S
C589        C594   1.433       .  A
C590        C591   1.413       .  A
C590        H599   1.077       .  S
C591        C592   1.425       .  A
C591        S595   1.806       .  S
C593        C594   1.394       .  A
C593        H600   1.080       .  S
C594        S596   1.826       .  S
S595        H598   1.406       .  S
S596        H597   1.396       .  S
C601        C602   1.403       .  A
C601        C606   1.436       .  A
C602        C603   1.387       .  A
C602        H611   1.079       .  S
C603        C604   1.436       .  A
C603        S607   1.801       .  S
C604        C605   1.412       .  A
C605        C606   1.396       .  A
C605        H612   1.083       .  S
C606        S608   1.813       .  S
S608        H609   1.396       .  S
C613        C614   1.414       .  A
C613        C618   1.426       .  A
C614        C615   1.393       .  A
C614        H623   1.067       .  S
C615        C616   1.426       .  A
C615        S619   1.814       .  S
C616        C617   1.418       .  A
C617        C618   1.406       .  A
C617        H624   1.082       .  S
C618        S620   1.811       .  S
S619        H622   1.409       .  S
S620        H621   1.407       .  S
C625        C626   1.411       .  A
C625        C630   1.437       .  A
C626        C627   1.398       .  A
C626        H635   1.076       .  S
C627        C628   1.418       .  A
C627        S631   1.813       .  S
C628        C629   1.426       .  A
C629        C630   1.426       .  A
C629        H636   1.076       .  S
C630        S632   1.809       .  S
S631        H634   1.400       .  S
S632        H633   1.407       .  S
C637        C638   1.416       .  A
C637        C642   1.428       .  A
C638        C639   1.399       .  A
C638        H647   1.074       .  S
C639        C640   1.434       .  A
C639        S643   1.806       .  S
C640        C641   1.418       .  A
C641        C642   1.425       .  A
C641        H648   1.079       .  S
C642        S644   1.781       .  S
S643        H646   1.408       .  S
S644        H645   1.408       .  S
C649        C650   1.417       .  A
C649        C654   1.440       .  A
C650        C927   1.414   1_545  A
C650        H659   1.080       .  S
C651        C926   1.414       .  A
C651        C652   1.435       .  A
C651        S655   1.798       .  S
C652        C653   1.415       .  A
C653        C930   1.394       .  A
C653        H660   1.074       .  S
C654        C929   1.395   1_545  A
C654        S656   1.820       .  S
S655        H658   1.378       .  S
S656        H657   1.381       .  S
C661        C662   1.388   1_455  A
C662        C663   1.394       .  A
C662        H671   1.086       .  S
C663        C664   1.428       .  A
C663        S667   1.777       .  S
C665        C666   1.410       .  A
C665        H672   1.078       .  S
C666        S668   1.805       .  S
S667        H670   1.402       .  S
S668        H669   1.403       .  S
C673        C678   1.415       .  A
C674        C675   1.401       .  A
C674        H683   1.083       .  S
C675        S679   1.807       .  S
C676        C677   1.415       .  A
C677        C678   1.407       .  A
C677        H684   1.078       .  S
C678        S680   1.807       .  S
S679        H682   1.401       .  S
S680        H681   1.407       .  S
C685        C686   1.407       .  A
C686        C687   1.421       .  A
C686        H695   1.082       .  S
C687        C688   1.444       .  A
C687        S691   1.817       .  S
C689        C690   1.387       .  A
C689        H696   1.065       .  S
C690        S692   1.818       .  S
S691        H694   1.407       .  S
S692        H969   1.409       .  S
H693        S968   1.408       .  S
C697        C702   1.451       .  A
C698        C699   1.392       .  A
C698        H707   1.081       .  S
C699        S703   1.794       .  S
C700        C701   1.394       .  A
C701        C702   1.411       .  A
C701        H708   1.085       .  S
C702        S704   1.808       .  S
S703        H982   1.405   1_545  S
S704        H705   1.391   1_455  S
H706        S979   1.406       .  S
C709        C710   1.422       .  A
C710        C711   1.395       .  A
C710        H719   1.077   1_455  S
C711        S715   1.815   1_455  S
C712        C713   1.416       .  A
C713        C714   1.412       .  A
C713        H720   1.066       .  S
C714        S716   1.809       .  S
S715        H718   1.408       .  S
S716        H717   1.386       .  S
C721        C722   1.417       .  A
C721        C726   1.428       .  A
C722        C723   1.404       .  A
C722        H731   1.072       .  S
C723        C724   1.428       .  A
C723        S727   1.814       .  S
C724        C725   1.412       .  A
C725        C726   1.391       .  A
C725        H732   1.076       .  S
C726        S728   1.808       .  S
S727        H730   1.407       .  S
S728        H729   1.407       .  S
C733        C734   1.419       .  A
C733        C738   1.429       .  A
C734        C735   1.399       .  A
C734        H743   1.072       .  S
C735        C736   1.429       .  A
C735        S739   1.818       .  S
C736        C737   1.417       .  A
C737        C738   1.402       .  A
C737        H744   1.073   1_655  S
C738        S740   1.808       .  S
S739        H742   1.408       .  S
S740        H741   1.408       .  S
C745        C746   1.418       .  A
C745        C750   1.437       .  A
C746        C747   1.406       .  A
C746        H755   1.078       .  S
C747        C748   1.436       .  A
C747        S751   1.804       .  S
C748        C749   1.413       .  A
C749        C750   1.411       .  A
C749        H756   1.063       .  S
C750        S752   1.810       .  S
S751        H754   1.403       .  S
S752        H753   1.408       .  S
C757        C758   1.411       .  A
C757        C762   1.442       .  A
C758        C759   1.397       .  A
C758        H767   1.075       .  S
C759        C760   1.428       .  A
C759        S763   1.803       .  S
C760        C761   1.412       .  A
C761        C762   1.406       .  A
C761        H768   1.080   1_655  S
C762        S764   1.812       .  S
S763        H766   1.407       .  S
S764        H765   1.393       .  S
C769        C770   1.419       .  A
C769        C774   1.436       .  A
C770       C1047   1.398   1_545  A
C770        H779   1.073       .  S
C771       C1046   1.397       .  A
C771        C772   1.431       .  A
C771        S775   1.810       .  S
C772        C773   1.416       .  A
C773       C1050   1.405       .  A
C773        H780   1.082       .  S
C774       C1049   1.404   1_545  A
C774        S776   1.820       .  S
S775        H778   1.399       .  S
S776        H777   1.406       .  S
C781        C782   1.423       .  A
C781        C786   1.443       .  A
C782        C783   1.394       .  A
C782        H791   1.074       .  S
C783        C784   1.409       .  A
C783        S787   1.803       .  S
C784        C785   1.404       .  A
C785        C786   1.406       .  A
C785        H792   1.084       .  S
C786        S788   1.818       .  S
S787        H790   1.408       .  S
S788        H789   1.394       .  S
C793        C794   1.398       .  A
C793        C798   1.410       .  A
C794        C795   1.407       .  A
C794        H803   1.084       .  S
C795        C796   1.446       .  A
C795        S799   1.812       .  S
C796        C797   1.417       .  A
C797        C798   1.391       .  A
C797        H804   1.071       .  S
C798        S800   1.803       .  S
S799        H802   1.395       .  S
S800        H801   1.405       .  S
C805        C806   1.402       .  A
C805        C810   1.417       .  A
C806        C807   1.405       .  A
C806        H815   1.084       .  S
C807        C808   1.430       .  A
C807        S811   1.786       .  S
C808        C809   1.422       .  A
C809        C810   1.404       .  A
C809        H816   1.078       .  S
C810        S812   1.812       .  S
S811        H814   1.406       .  S
S812        H813   1.407       .  S
C817        C818   1.423       .  A
C817        C822   1.439       .  A
C818        C819   1.384       .  A
C818        H827   1.074       .  S
C819        C820   1.394       .  A
C819        S823   1.796       .  S
C820        C821   1.400       .  A
C821        C822   1.413       .  A
C821        H828   1.084       .  S
C822        S824   1.803       .  S
S823        H826   1.407       .  S
S824        H825   1.401       .  S
O829       Cu837   2.018   1_554  S
O829        C839   1.279       .  A
O830       Cu837   2.014       .  S
O830        C840   1.278       .  A
O831       Cu837   1.984   1_554  S
O831        C841   1.274       .  A
O832       Cu837   1.995       .  S
O832        C842   1.274       .  A
O833       Cu838   2.043   1_556  S
O833        C842   1.283       .  A
O834       Cu838   2.041       .  S
O834        C841   1.283       .  A
O835       Cu838   2.013   1_556  S
O835        C840   1.276       .  A
O836       Cu838   2.006       .  S
O836        C839   1.277       .  A
Cu837      Cu838   2.364   1_556  S
C839       C1060   1.495       .  S
C840       C1096   1.471       .  S
C841       C1069   1.489       .  S
C842       C1081   1.501       .  S
C843       C1024   1.605       .  S
C843       C1033   1.585       .  S
C843       C1045   1.593       .  S
C843       C1057   1.585       .  S
C844        C997   1.577       .  S
C844       C1009   1.595       .  S
C844       C1048   1.578       .  S
C844       C1072   1.577       .  S
C845        C973   1.590       .  S
C845        C985   1.585       .  S
C845       C1036   1.590   1_455  S
C846        C964   1.601       .  S
C846        C988   1.585       .  S
C846       C1000   1.569       .  S
O847        C857   1.274   1_655  A
O848       Cu855   2.004       .  S
O848        C858   1.278       .  A
O849       Cu855   2.019       .  S
O849        C859   1.278   1_655  A
O850        C860   1.276   1_655  A
O852       Cu856   2.020       .  S
O853       Cu856   2.032       .  S
C859        C976   1.479       .  S
C860        C937   1.474       .  S
C861        C901   1.577       .  S
C861        C916   1.601       .  S
C861        C925   1.589       .  S
C861       C1084   1.592       .  S
C862        C877   1.579       .  S
C862        C892   1.558       .  S
C862        C928   1.604       .  S
C862       C1093   1.584       .  S
C863        C865   1.583       .  S
C863        C904   1.619       .  S
C863        C952   1.580       .  S
C864        C868   1.589       .  S
C864        C889   1.572       .  S
C864        C940   1.580       .  S
C865        C870   1.432       .  A
C866        C867   1.413       .  A
C866        H875   1.077       .  S
C867        C868   1.424       .  A
C867        S871   1.805       .  S
C869        C870   1.393       .  A
C869        H876   1.080       .  S
C870        S872   1.826       .  S
S871        H874   1.407       .  S
S872        H873   1.396       .  S
C877        C878   1.403       .  A
C877        C882   1.436       .  A
C878        C879   1.387       .  A
C878        H887   1.080       .  S
C879        C880   1.436       .  A
C879        S883   1.800       .  S
C880        C881   1.412       .  A
C881        C882   1.395       .  A
C881        H888   1.083       .  S
C882        S884   1.814       .  S
S884        H885   1.397       .  S
C889        C890   1.413       .  A
C889        C894   1.426       .  A
C890        C891   1.393       .  A
C890        H899   1.067       .  S
C891        C892   1.427       .  A
C891        S895   1.814       .  S
C892        C893   1.419       .  A
C893        C894   1.407       .  A
C893        H900   1.082       .  S
C894        S896   1.811       .  S
S895        H898   1.409       .  S
S896        H897   1.407       .  S
C901        C902   1.411       .  A
C901        C906   1.437       .  A
C902        C903   1.398       .  A
C902        H911   1.076       .  S
C903        C904   1.418       .  A
C903        S907   1.813       .  S
C904        C905   1.427       .  A
C905        C906   1.426       .  A
C905        H912   1.077       .  S
C906        S908   1.809       .  S
S907        H910   1.401       .  S
S908        H909   1.407       .  S
C913        C914   1.415       .  A
C913        C918   1.428       .  A
C914        C915   1.398       .  A
C914        H923   1.074       .  S
C915        C916   1.434       .  A
C915        S919   1.807       .  S
C916        C917   1.418       .  A
C917        C918   1.425       .  A
C917        H924   1.079       .  S
C918        S920   1.782       .  S
S919        H922   1.408       .  S
S920        H921   1.408       .  S
C925        C926   1.417       .  A
C925        C930   1.439       .  A
C926        H935   1.080       .  S
C927        C928   1.435       .  A
C927        S931   1.798       .  S
C928        C929   1.415       .  A
C929        H936   1.074       .  S
C930        S932   1.819       .  S
S931        H934   1.377       .  S
S932        H933   1.381       .  S
C937        C938   1.388   1_455  A
C938        C939   1.394       .  A
C938        H947   1.086       .  S
C939        C940   1.428       .  A
C939        S943   1.777       .  S
C941        C942   1.410       .  A
C941        H948   1.078       .  S
C942        S944   1.806       .  S
S943        H946   1.402       .  S
S944        H945   1.403       .  S
C949        C954   1.414       .  A
C950        C951   1.401       .  A
C950        H959   1.083       .  S
C951        S955   1.807       .  S
C952        C953   1.415       .  A
C953        C954   1.407       .  A
C953        H960   1.078       .  S
C954        S956   1.808       .  S
S955        H958   1.401       .  S
S956        H957   1.407       .  S
C961        C962   1.407       .  A
C962        C963   1.421       .  A
C962        H971   1.082       .  S
C963        C964   1.444       .  A
C963        S967   1.817       .  S
C965        C966   1.387       .  A
C965        H972   1.064       .  S
C966        S968   1.818       .  S
S967        H970   1.406       .  S
C973        C978   1.452       .  A
C974        C975   1.392       .  A
C974        H983   1.081       .  S
C975        S979   1.794       .  S
C976        C977   1.395       .  A
C977        C978   1.412       .  A
C977        H984   1.085       .  S
C978        S980   1.808       .  S
S980        H981   1.391   1_455  S
C985        C986   1.422       .  A
C986        C987   1.396       .  A
C986        H995   1.077   1_455  S
C987        S991   1.816   1_455  S
C988        C989   1.416       .  A
C989        C990   1.412       .  A
C989        H996   1.067       .  S
C990        S992   1.809       .  S
S991        H994   1.408       .  S
S992        H993   1.386       .  S
C997        C998   1.418       .  A
C997       C1002   1.428       .  A
C998        C999   1.403       .  A
C998       H1007   1.074       .  S
C999       C1000   1.427       .  A
C999       S1003   1.811       .  S
C1000      C1001   1.413       .  A
C1001      C1002   1.391       .  A
C1001      H1008   1.076       .  S
C1002      S1004   1.808       .  S
S1003      H1006   1.408       .  S
S1004      H1005   1.407       .  S
C1009      C1010   1.419       .  A
C1009      C1014   1.429       .  A
C1010      C1011   1.399       .  A
C1010      H1019   1.072       .  S
C1011      C1012   1.430       .  A
C1011      S1015   1.818       .  S
C1012      C1013   1.416       .  A
C1013      C1014   1.401       .  A
C1013      H1020   1.073   1_655  S
C1014      S1016   1.807       .  S
S1015      H1018   1.408       .  S
S1016      H1017   1.408       .  S
C1021      C1022   1.418       .  A
C1021      C1026   1.438       .  A
C1022      C1023   1.406       .  A
C1022      H1031   1.078       .  S
C1023      C1024   1.436       .  A
C1023      S1027   1.805       .  S
C1024      C1025   1.413       .  A
C1025      C1026   1.412       .  A
C1025      H1032   1.064       .  S
C1026      S1028   1.813       .  S
S1027      H1030   1.402       .  S
S1028      H1029   1.406       .  S
C1033      C1034   1.412       .  A
C1033      C1038   1.442       .  A
C1034      C1035   1.398       .  A
C1034      H1043   1.075       .  S
C1035      C1036   1.428       .  A
C1035      S1039   1.804       .  S
C1036      C1037   1.413       .  A
C1037      C1038   1.407       .  A
C1037      H1044   1.080   1_655  S
C1038      S1040   1.813       .  S
S1039      H1042   1.407       .  S
S1040      H1041   1.392       .  S
C1045      C1046   1.419       .  A
C1045      C1050   1.436       .  A
C1046      H1055   1.073       .  S
C1047      C1048   1.431       .  A
C1047      S1051   1.811       .  S
C1048      C1049   1.416       .  A
C1049      H1056   1.082       .  S
C1050      S1052   1.820       .  S
S1051      H1054   1.398       .  S
S1052      H1053   1.406       .  S
C1057      C1058   1.423       .  A
C1057      C1062   1.443       .  A
C1058      C1059   1.395       .  A
C1058      H1067   1.073       .  S
C1059      C1060   1.408       .  A
C1059      S1063   1.803       .  S
C1060      C1061   1.404       .  A
C1061      C1062   1.406       .  A
C1061      H1068   1.084       .  S
C1062      S1064   1.818       .  S
S1063      H1066   1.408       .  S
S1064      H1065   1.395       .  S
C1069      C1070   1.398       .  A
C1069      C1074   1.411       .  A
C1070      C1071   1.407       .  A
C1070      H1079   1.084       .  S
C1071      C1072   1.446       .  A
C1071      S1075   1.812       .  S
C1072      C1073   1.418       .  A
C1073      C1074   1.392       .  A
C1073      H1080   1.072       .  S
C1074      S1076   1.804       .  S
S1075      H1078   1.394       .  S
S1076      H1077   1.406       .  S
C1081      C1082   1.402       .  A
C1081      C1086   1.417       .  A
C1082      C1083   1.405       .  A
C1082      H1091   1.084       .  S
C1083      C1084   1.430       .  A
C1083      S1087   1.787       .  S
C1084      C1085   1.422       .  A
C1085      C1086   1.404       .  A
C1085      H1092   1.078       .  S
C1086      S1088   1.813       .  S
S1087      H1090   1.406       .  S
S1088      H1089   1.407       .  S
C1093      C1094   1.424       .  A
C1093      C1098   1.439       .  A
C1094      C1095   1.386       .  A
C1094      H1103   1.074       .  S
C1095      C1096   1.395       .  A
C1095      S1099   1.797       .  S
C1096      C1097   1.401       .  A
C1097      C1098   1.413       .  A
C1097      H1104   1.084       .  S
C1098      S1100   1.802       .  S
S1099      H1102   1.406       .  S
S1100      H1101   1.402       .  S
