geometry optimzed in LAMMPS
_audit_creation_date              2020-11-30 
_audit_creation_method            'lammps2cif' 
_symmetry_space_group_name_H-M    'P1' 
_symmetry_Int_Tables_number       1 
_symmetry_cell_setting            triclinic 
loop_ 
_symmetry_equiv_pos_as_xyz 
  x,y,z 
_cell_length_a                    31.386606329378957 
_cell_length_b                    31.377995064784795 
_cell_length_c                    31.34934836666753 
_cell_angle_alpha                 88.29672351982813 
_cell_angle_beta                  92.22883089223566 
_cell_angle_gamma                 89.67346044586036 
loop_ 
_atom_site_label 
_atom_site_type_symbol 
_atom_site_fract_x 
_atom_site_fract_y 
_atom_site_fract_z 
_atom_site_charge 
O1          O  0.00235899  0.11963756  0.07445345    -0.85750
O2          O  0.00424520  0.87581302  0.07164529    -0.85910
O3          O  0.93349011  0.99662798  0.12348189    -0.87580
O4          O  0.07536057  0.99096784  0.12304074    -0.86340
O5          O  0.12581307  0.99311330  0.07186964    -0.85930
O6          O  0.88142449  0.99606369  0.07012907    -0.87300
O7          O  0.00463107  0.92639282  0.12316794    -0.85780
O8          O  0.00559542  0.06704296  0.12679609    -0.85360
Zr9        Zr  0.00353024  0.99768105  0.08938456     2.84310
O10         O  0.04545820  0.95699011  0.04451720    -1.07340
O11         O  0.95849688  0.04154694  0.04567838    -1.08070
C12         C  0.00452219  0.10705129  0.11432780     1.07360
C13         C  0.00469361  0.88728054  0.11107092     1.07300
C14         C  0.89375712  0.99601736  0.11013136     1.10280
C15         C  0.11440173  0.98986231  0.11091379     1.08060
H16         H  0.94349413  0.93602415  0.06191854     0.33620
O17         O  0.96093721  0.95441811  0.04469450    -1.28290
H18         H  0.06413412  0.05794211  0.06481591     0.33300
O19         O  0.04616825  0.04108488  0.04626224    -1.29970
O20         O  0.00206371  0.87980022  0.93009584    -0.85740
O21         O  0.99570761  0.12529664  0.93524381    -0.87240
O22         O  0.88186890  0.92869799  0.99817001    -0.85820
O23         O  0.12565798  0.92937967  0.00873499    -0.85870
O24         O  0.12244555  0.07065503  0.00817930    -0.85580
O25         O  0.87815930  0.06675118  0.00121222    -0.85390
O26         O  0.93186889  0.00337453  0.87910669    -0.85760
O27         O  0.07302403  0.00522933  0.88042051    -0.85220
O28         O  0.88087176  0.00137776  0.92974075    -0.86280
O29         O  0.12588504  0.00338969  0.93297611    -0.85440
O30         O  0.93371502  0.87693151  0.99832133    -0.85840
O31         O  0.92864222  0.11925397  0.00388574    -0.85560
O32         O  0.07027232  0.12232107  0.00755455    -0.85210
O33         O  0.07399481  0.87795985  0.00870708    -0.85620
O34         O  0.00074570  0.93337361  0.87856323    -0.85920
O35         O  0.99639735  0.07510264  0.88335050    -0.87260
Zr36       Zr  0.00350701  0.91267265  0.00120855     2.83100
Zr37       Zr  0.00080262  0.08633340  0.00394670     2.83500
Zr38       Zr  0.91631383  0.99852042  0.00087795     2.84090
Zr39       Zr  0.08947849  0.99991259  0.00233405     2.83360
Zr40       Zr  0.00258890  0.00246751  0.91506693     2.84220
O41         O  0.04449065  0.04550877  0.96002268    -1.07830
O42         O  0.95991965  0.95809579  0.95764191    -1.07330
C43         C  0.00078398  0.89329080  0.89041158     1.07330
C44         C  0.99392271  0.11412242  0.89584105     1.09950
C45         C  0.89416149  0.88927452  0.99742762     1.07510
C46         C  0.11349721  0.88987673  0.01114965     1.07870
C47         C  0.10983757  0.11003589  0.00967342     1.07450
C48         C  0.88929479  0.10632946  0.00252950     1.07000
C49         C  0.89264724  0.00311785  0.89058080     1.07430
C50         C  0.11316091  0.00504204  0.89293714     1.06940
H51         H  0.94043798  0.06105971  0.94136857     0.33620
O52         O  0.95918861  0.04292470  0.95911863    -1.28930
H53         H  0.06425076  0.93973907  0.94123204     0.33640
O54         O  0.04650287  0.95691395  0.95855433    -1.30310
C55         C  0.01243292  0.16602982  0.22195105     0.03870
C56         C  0.01020054  0.13254809  0.19227588    -0.12280
C57         C  0.00617618  0.14172984  0.14745112     0.01370
C58         C  0.00378749  0.18541641  0.13394384    -0.10810
C59         C  0.00614905  0.21844773  0.16364773     0.03860
C60         C  0.01069888  0.20820037  0.20699258    -0.10230
H61         H  0.01117444  0.09979434  0.20412714     0.09460
H62         H  0.00018591  0.19407583  0.10029318     0.06990
H63         H  0.01209771  0.23364294  0.22970301     0.06830
O64         O  0.01386715  0.12936117  0.43439510    -0.74550
O65         O  0.00629592  0.07691619  0.38600641    -0.53460
C66         C  0.01335607  0.11558686  0.39597624     0.79180
O67         O  0.12658918  0.00357488  0.56996789    -0.59150
O68         O  0.07255779  0.99762425  0.61616327    -0.52180
C69         C  0.11184892  0.00178384  0.60787173     0.71190
O70         O  0.11468023  0.00452082  0.42167734    -0.73710
O71         O  0.05437253  0.00363935  0.37954518    -0.54270
C72         C  0.09475168  0.00391619  0.38471889     0.77190
O73         O  0.00235299  0.11509019  0.58177001    -0.58850
O74         O  0.00175842  0.05362399  0.62137845    -0.51970
C75         C  0.00148462  0.09401869  0.61793230     0.73790
Zr76       Zr  0.00331643  0.09545892  0.50534495     2.54710
O77         O  0.05594654  0.15094387  0.51717380    -0.79420
O78         O  0.94674923  0.14904738  0.50115512    -0.92840
Zr79       Zr  0.09311551  0.00192925  0.49720280     2.64680
O80         O  0.14977410  0.05421311  0.49172228    -0.97790
O81         O  0.14513391  0.94408077  0.49790381    -0.79850
O82         O  0.04599728  0.05245539  0.46205797    -0.83210
O83         O  0.05164152  0.04623409  0.54027195    -2.17920
O84         O  0.88756842  0.00520869  0.57693102    -0.66600
O85         O  0.94799324  0.99985814  0.61889652    -0.51170
C86         C  0.90764942  0.00253621  0.61374541     0.72170
O87         O  0.99661792  0.89007543  0.42166920    -0.59510
O88         O  0.99468795  0.95018312  0.37922386    -0.51490
C89         C  0.99537176  0.90963112  0.38488846     0.73970
O90         O  0.99795128  0.87782265  0.56778166    -0.70900
O91         O  0.00999356  0.93080624  0.61459554    -0.49580
C92         C  0.00378516  0.89182108  0.60581786     0.75350
O93         O  0.87642991  0.00959502  0.42891020    -0.66230
O94         O  0.93057129  0.01864247  0.38329308    -0.53430
C95         C  0.89102079  0.01539770  0.39121115     0.73740
Zr96       Zr  0.90963403  0.00621435  0.50191311     2.77540
O97         O  0.85430018  0.95215974  0.50342639    -0.96980
O98         O  0.85617238  0.06256881  0.50329853    -0.77800
Zr99       Zr  0.99890462  0.91241292  0.49601298     2.70070
O100        O  0.94297800  0.85919151  0.49093635    -0.79050
O101        O  0.05368610  0.85728226  0.49493425    -0.98130
Zr102      Zr  0.99610413  0.01042895  0.42399672     2.21500
Zr103      Zr  0.00714385  0.99677254  0.57497055     2.11130
O104        O  0.95585561  0.95533285  0.53829003    -2.46820
O105        O  0.95108502  0.96171795  0.45912415    -0.78840
O106        O  0.95912377  0.04717303  0.54241991    -0.71040
O107        O  0.04349197  0.95996054  0.45810157    -2.32000
O108        O  0.95307257  0.05541928  0.46396170    -2.28200
O109        O  0.05051472  0.95218879  0.53572399    -0.72800
H110        H  0.06940818  0.06172408  0.56020384     0.79200
H111        H  0.05881598  0.94374688  0.43788663     0.80290
H112        H  0.93983241  0.93785015  0.55774255     0.82510
H113        H  0.93581969  0.07434592  0.44547797     0.80120
H114        H  0.12978260  0.92035248  0.48411560     0.43150
H115        H  0.07228692  0.86219049  0.52053423     0.42120
H116        H  0.91613241  0.87598968  0.48944102     0.41800
H117        H  0.86210870  0.93351742  0.52858677     0.39730
H118        H  0.87237448  0.08796619  0.51231346     0.42870
H119        H  0.93557862  0.14896812  0.47118997     0.37650
H120        H  0.08345313  0.13730860  0.51094946     0.43770
H121        H  0.14434826  0.07455313  0.51447827     0.40180
H122        H  0.82846486  0.96765990  0.51167876     0.45100
H123        H  0.96186715  0.17653594  0.50350141     0.43820
H124        H  0.17593830  0.03862328  0.50184816     0.43960
H125        H  0.03861419  0.83044096  0.50173582     0.44320
C126        C  0.83772476  0.99797857  0.21760346     0.03870
C127        C  0.87006015  0.99792900  0.18728420    -0.12280
C128        C  0.85958332  0.99538257  0.14292580     0.01370
C129        C  0.81572733  0.99296170  0.13015458    -0.10810
C130        C  0.78377340  0.99337308  0.16070369     0.03860
C131        C  0.79533653  0.99550052  0.20377008    -0.10230
H132        H  0.90305367  0.00038500  0.19833265     0.09460
H133        H  0.80625113  0.99094834  0.09669223     0.06990
H134        H  0.77065258  0.99588188  0.22706121     0.06830
C135        C  0.00482020  0.77779342  0.16895831     0.03870
C136        C  0.00194341  0.80983893  0.13610202    -0.12280
C137        C  0.00518172  0.85322409  0.14546312     0.01370
C138        C  0.00847997  0.86406286  0.18851923    -0.10810
C139        C  0.00671726  0.83268531  0.22140094     0.03860
C140        C  0.00652744  0.78965535  0.21154570    -0.10230
H141        H  0.99882894  0.80065746  0.10308506     0.09460
H142        H  0.01034140  0.89727100  0.19693983     0.06990
H143        H  0.00755753  0.76561573  0.23703917     0.06830
C144        C  0.22407961  0.99137552  0.16673460     0.03870
C145        C  0.19200683  0.99027830  0.13427626    -0.12280
C146        C  0.14905465  0.98589073  0.14443484     0.01370
C147        C  0.13934405  0.98028623  0.18737554    -0.10810
C148        C  0.17031870  0.98732935  0.22006525     0.03860
C149        C  0.21300035  0.99210442  0.20952266    -0.10230
H150        H  0.20088617  0.99241557  0.10122122     0.09460
H151        H  0.10659660  0.97476722  0.19570781     0.06990
H152        H  0.23749780  0.99653835  0.23424486     0.06830
C153        C  0.99632003  0.84134034  0.78000037     0.03870
C154        C  0.99880738  0.87248275  0.81179168    -0.12280
C155        C  0.99909344  0.86027541  0.85592981     0.01370
C156        C  0.99751408  0.81591056  0.86660518    -0.10810
C157        C  0.99574748  0.78530443  0.83427713     0.03860
C158        C  0.99467614  0.79855464  0.79173937    -0.10230
H159        H  0.00047491  0.90581294  0.80205334     0.09460
H160        H  0.99759690  0.80504814  0.89972025     0.06990
H161        H  0.99282076  0.77494308  0.76710505     0.06830
C162        C  0.16491624  0.00549686  0.78257784     0.03870
C163        C  0.13431678  0.00409507  0.81462762    -0.12280
C164        C  0.14678495  0.00661532  0.85866954     0.01370
C165        C  0.19149500  0.01059349  0.86887426    -0.10810
C166        C  0.22187691  0.01199558  0.83608779     0.03860
C167        C  0.20777184  0.00961832  0.79379388    -0.10230
H168        H  0.10097930  0.00107141  0.80506674     0.09460
H169        H  0.20267368  0.01245767  0.90186660     0.06990
H170        H  0.23078783  0.01129856  0.76881981     0.06830
C171        C  0.98690503  0.16685283  0.78551073     0.03870
C172        C  0.98088774  0.13736932  0.81941465    -0.12280
C173        C  0.98922088  0.14843996  0.86195103     0.01370
C174        C  0.99544274  0.19182664  0.87067297    -0.10810
C175        C  0.99621550  0.22248020  0.83690184     0.03860
C176        C  0.99408345  0.20954146  0.79462850    -0.10230
H177        H  0.97377951  0.10455054  0.81215667     0.09460
H178        H  0.00004695  0.20184052  0.90329799     0.06990
H179        H  0.99905827  0.23273829  0.76904056     0.06830
C180        C  0.83697572  0.01357368  0.78042447     0.03870
C181        C  0.86880653  0.01325737  0.81340279    -0.12280
C182        C  0.85853466  0.00575416  0.85606206     0.01370
C183        C  0.81533482  0.00130941  0.86524463    -0.10810
C184        C  0.78288524  0.00816831  0.83313224     0.03860
C185        C  0.79413600  0.01327202  0.79062592    -0.10230
H186        H  0.90191549  0.01605186  0.80516449     0.09460
H187        H  0.80658708  0.99488967  0.89789865     0.06990
H188        H  0.76974959  0.01663152  0.76542487     0.06830
O189        O  0.56897898  0.11891523  0.00443622    -0.74550
O190        O  0.61567760  0.06287327  0.01000487    -0.53460
C191        C  0.60691984  0.10284301  0.00747502     0.79180
O192        O  0.42796366  0.98957886  0.11782563    -0.59150
O193        O  0.38299297  0.98470236  0.05951851    -0.52180
C194        C  0.39067644  0.98665093  0.09984059     0.71190
O195        O  0.57253246  0.98444050  0.12279763    -0.73710
O196        O  0.61871472  0.98822318  0.06839894    -0.54270
C197        C  0.61032361  0.98436489  0.10792878     0.77190
O198        O  0.42309470  0.11098390  0.99929042    -0.58850
O199        O  0.38178988  0.05262162  0.99453442    -0.51970
C200        C  0.38644829  0.09249827  0.99671668     0.73790
Zr201      Zr  0.49830478  0.08574236  0.00418013     2.54710
O202        O  0.50708242  0.13414473  0.06314253    -0.79420
O203        O  0.48169002  0.13150904  0.94164506    -0.92840
Zr204      Zr  0.49961200  0.98941198  0.09042063     2.64680
O205        O  0.50233330  0.04337150  0.14469877    -0.97790
O206        O  0.49851555  0.93312925  0.14544326    -0.79850
O207        O  0.54002142  0.04007180  0.05119704    -0.83210
O208        O  0.45690863  0.03823558  0.04622485    -2.17920
O209        O  0.43348837  0.01013713  0.87463960    -0.66600
O210        O  0.38835479  0.01281504  0.92925423    -0.51170
C211        C  0.39631919  0.01530791  0.88940328     0.72170
O212        O  0.57458909  0.87748749  0.98890271    -0.59510
O213        O  0.61955266  0.93400922  0.99667584    -0.51490
C214        C  0.61193773  0.89448163  0.99063054     0.73970
O215        O  0.42939393  0.87175297  0.99019299    -0.70900
O216        O  0.38442211  0.92754803  0.99714392    -0.49580
C217        C  0.39176581  0.88799348  0.99260984     0.75350
O218        O  0.57854545  0.00939208  0.88424536    -0.66230
O219        O  0.62138272  0.00232073  0.94396092    -0.53430
C220        C  0.61568208  0.00856122  0.90379639     0.73740
Zr221      Zr  0.50465960  0.00145511  0.90861278     2.77540
O222        O  0.51762488  0.94853535  0.85537480    -0.96980
O223        O  0.49189785  0.06834108  0.86842546    -0.77800
Zr224      Zr  0.50105929  0.90411030  0.99387042     2.70070
O225        O  0.49922379  0.85049215  0.93933242    -0.79050
O226        O  0.50815576  0.84833038  0.04936628    -0.98130
Zr227      Zr  0.57724521  0.99720639  0.00332652     2.21500
Zr228      Zr  0.42447080  0.99130567  0.99677465     2.11130
O229        O  0.46025488  0.95136475  0.94584023    -2.46820
O230        O  0.54351395  0.95194275  0.95270031    -0.78840
O231        O  0.49153709  0.01539303  0.98069294    -0.71040
O232        O  0.53914734  0.94675253  0.04423774    -2.32000
O233        O  0.54053808  0.04787857  0.95603092    -2.28200
O234        O  0.46065334  0.94261470  0.04361390    -0.72800
H235        H  0.43677597  0.05352176  0.06270583     0.79200
H236        H  0.55854984  0.92836247  0.06099983     0.80290
H237        H  0.44098202  0.93630440  0.92689644     0.82510
H238        H  0.55954350  0.06659674  0.94097900     0.80120
H239        H  0.50898525  0.90750962  0.13130265     0.43150
H240        H  0.48366345  0.85299433  0.06769413     0.42120
H241        H  0.51601266  0.86300035  0.91603884     0.41800
H242        H  0.49654730  0.92590560  0.86101761     0.39730
H243        H  0.46678361  0.08167622  0.88088509     0.42870
H244        H  0.50927302  0.13486756  0.92766426     0.37650
H245        H  0.52674032  0.11912119  0.08407500     0.43770
H246        H  0.48094652  0.06506857  0.13457386     0.40180
H247        H  0.50729811  0.96232875  0.82806210     0.45100
H248        H  0.47607980  0.15990733  0.95327871     0.43820
H249        H  0.48973929  0.02947996  0.16998068     0.43960
H250        H  0.50128928  0.82168382  0.03449943     0.44320
O251        O  0.11305735  0.42553222  0.01207125    -0.74550
O252        O  0.05730049  0.38172878  0.99852626    -0.53460
C253        C  0.09610400  0.38802367  0.00895782     0.79180
O254        O  0.00007026  0.57587495  0.11035634    -0.59150
O255        O  0.99356318  0.62048562  0.05206434    -0.52180
C256        C  0.99894318  0.61348888  0.09229210     0.71190
O257        O  0.99551202  0.42923748  0.11746334    -0.73710
O258        O  0.99376686  0.38507228  0.06123672    -0.54270
C259        C  0.99426146  0.39198617  0.10121503     0.77190
O260        O  0.11487853  0.57413917  0.99862372    -0.58850
O261        O  0.05709237  0.61829625  0.99188962    -0.51970
C262        C  0.09733985  0.61147729  0.99535666     0.73790
Zr263      Zr  0.08722361  0.50071121  0.99881251     2.54710
O264        O  0.14426960  0.50440543  0.05337592    -0.79420
O265        O  0.14024869  0.49646420  0.94440362    -0.92840
Zr266      Zr  0.99439588  0.50183398  0.08529200     2.64680
O267        O  0.04736562  0.49922227  0.14417896    -0.97790
O268        O  0.93665454  0.50632782  0.13462510    -0.79850
O269        O  0.04206814  0.46166055  0.04443472    -0.83210
O270        O  0.04033700  0.54078735  0.04038265    -2.17920
O271        O  0.99396541  0.57405540  0.86951092    -0.66600
O272        O  0.98679246  0.61877214  0.92467504    -0.51170
C273        C  0.98893910  0.61127780  0.88477905     0.72170
O274        O  0.88036648  0.42196636  0.98119237    -0.59510
O275        O  0.93842578  0.37955728  0.99419770    -0.51490
C276        C  0.89892553  0.38486592  0.98535940     0.73970
O277        O  0.87313172  0.57020540  0.99518596    -0.70900
O278        O  0.92845977  0.61713499  0.99466947    -0.49580
C279        C  0.88889828  0.60809330  0.99700323     0.75350
O280        O  0.00004799  0.43046748  0.87382182    -0.66230
O281        O  0.00275920  0.38560115  0.93222976    -0.53430
C282        C  0.00277805  0.39323927  0.89191454     0.73740
Zr283      Zr  0.99660986  0.50193147  0.90202617     2.77540
O284        O  0.94169168  0.49898639  0.84518687    -0.96980
O285        O  0.05343380  0.50462784  0.85137322    -0.77800
Zr286      Zr  0.90340474  0.49783335  0.98880182     2.70070
O287        O  0.84830770  0.50499861  0.93221867    -0.79050
O288        O  0.84914752  0.48689164  0.04134135    -0.98130
Zr289      Zr  0.99689227  0.42568371  0.99566299     2.21500
Zr290      Zr  0.99307802  0.57743024  0.99064652     2.11130
O291        O  0.94764689  0.53936847  0.94355443    -2.46820
O292        O  0.95024348  0.46052084  0.94509684    -0.78840
O293        O  0.04199758  0.54115299  0.94883243    -0.71040
O294        O  0.94912008  0.46098328  0.03930737    -2.32000
O295        O  0.04347659  0.46252917  0.95041852    -2.28200
O296        O  0.94729026  0.53904675  0.03580522    -0.72800
H297        H  0.05716357  0.56028347  0.05719116     0.79200
H298        H  0.93244191  0.44114204  0.05575048     0.80290
H299        H  0.92990483  0.55838005  0.92564671     0.82510
H300        H  0.06110448  0.44330390  0.93517097     0.80120
H301        H  0.91724395  0.48284265  0.12669458     0.43150
H302        H  0.85661507  0.50715310  0.06402628     0.42120
H303        H  0.86262233  0.49646872  0.90617435     0.41800
H304        H  0.92243854  0.52330787  0.85010706     0.39730
H305        H  0.07849279  0.51509060  0.86803448     0.42870
H306        H  0.13609594  0.46807979  0.93198014     0.37650
H307        H  0.12941419  0.50362038  0.08067430     0.43770
H308        H  0.06860088  0.52103544  0.13637744     0.40180
H309        H  0.95646717  0.50728931  0.81890081     0.45100
H310        H  0.16782816  0.49403389  0.96075472     0.43820
H311        H  0.03259835  0.51130568  0.16845698     0.43960
H312        H  0.82268706  0.49875653  0.02730594     0.44320
C313        C  0.21907461  0.16238117  0.02210118     0.03870
C314        C  0.20858198  0.20546816  0.02067720    -0.12280
C315        C  0.16620149  0.21835502  0.01557987     0.01370
C316        C  0.13393039  0.18726450  0.01017898    -0.10810
C317        C  0.14356585  0.14344223  0.01459144     0.03860
C318        C  0.18638551  0.13166347  0.02298082    -0.10230
H319        H  0.23356724  0.22902090  0.02238741     0.09460
H320        H  0.10117948  0.19747691  0.00400121     0.06990
H321        H  0.19507918  0.09820189  0.02599882     0.06830
C322        C  0.22199743  0.83092790  0.01620339     0.03870
C323        C  0.19116027  0.86423667  0.01727961    -0.12280
C324        C  0.14702513  0.85516911  0.01655173     0.01370
C325        C  0.13498950  0.81185621  0.01821066    -0.10810
C326        C  0.16581934  0.77891399  0.01838872     0.03860
C327        C  0.20867092  0.78878346  0.01689983    -0.10230
H328        H  0.20158668  0.89707765  0.01586764     0.09460
H329        H  0.10156303  0.80336817  0.01699962     0.06990
H330        H  0.23149927  0.76331876  0.01269789     0.06830
C331        C  0.77811772  0.15882063  0.99446817     0.03870
C332        C  0.81060603  0.12756095  0.00019068    -0.12280
C333        C  0.85413124  0.13929027  0.00115381     0.01370
C334        C  0.86366842  0.18310718  0.99915850    -0.10810
C335        C  0.83120432  0.21429644  0.99184271     0.03860
C336        C  0.78884303  0.20152657  0.98874164    -0.10230
H337        H  0.80176436  0.09435694  0.00366776     0.09460
H338        H  0.89661793  0.19312375  0.00165593     0.06990
H339        H  0.76376407  0.22500553  0.98241959     0.06830
C340        C  0.83778028  0.78109930  0.99313939     0.03870
C341        C  0.87029592  0.81199699  0.99489039    -0.12280
C342        C  0.86003124  0.85597018  0.99545049     0.01370
C343        C  0.81643313  0.86797824  0.99435729    -0.10810
C344        C  0.78416774  0.83700179  0.99268654     0.03860
C345        C  0.79526168  0.79406602  0.99185783    -0.10230
H346        H  0.90330484  0.80161688  0.99618682     0.09460
H347        H  0.80731689  0.90130195  0.99484491     0.06990
H348        H  0.77033410  0.77027771  0.99070321     0.06830
C349        C  0.84682160  0.73446169  0.99590519    -0.04600
C350        C  0.83049763  0.70718875  0.96384437    -0.01710
C351        C  0.83654671  0.66262646  0.96838043     0.03270
C352        C  0.86141993  0.64565301  0.00294826    -0.04600
C353        C  0.87216133  0.67180039  0.03737288    -0.01700
C354        C  0.86572897  0.71617139  0.03380085     0.03270
C355        C  0.80872470  0.72487168  0.92563548     0.37920
C356        C  0.88780100  0.65199984  0.07717050     0.37910
C357        C  0.87814452  0.74270534  0.06927806     0.36340
C358        C  0.81598082  0.63389976  0.93886125     0.36340
N359        N  0.88816396  0.76382955  0.09755603    -0.38480
N360        N  0.79900540  0.61073819  0.91581278    -0.38480
N361        N  0.89853734  0.63538311  0.10919281    -0.37930
N362        N  0.79135123  0.73898814  0.89513412    -0.37930
C363        C  0.87518483  0.34411183  0.97986525    -0.04600
C364        C  0.83701288  0.33612030  0.00111880    -0.01710
C365        C  0.82247996  0.29361690  0.00632498     0.03020
C366        C  0.84206910  0.26011556  0.98446039    -0.04600
C367        C  0.87455426  0.27018317  0.95652370    -0.01700
C368        C  0.89475439  0.30957629  0.95914262     0.03270
C369        C  0.81538725  0.37045795  0.02162863     0.37920
C370        C  0.88916349  0.23904986  0.92671516     0.37910
C371        C  0.93910513  0.30954719  0.94828331     0.36340
C372        C  0.78945261  0.28438700  0.03624956     0.36340
N373        N  0.97496726  0.30485961  0.94261995    -0.38480
N374        N  0.76316573  0.27705183  0.06024179    -0.38480
N375        N  0.90055903  0.21415851  0.90307405    -0.37930
N376        N  0.79801217  0.39776016  0.03805779    -0.37930
C377        C  0.12398241  0.65065678  0.99657848    -0.04600
C378        C  0.15086044  0.65863173  0.03264515    -0.01710
C379        C  0.16437095  0.70076053  0.04050664     0.03270
C380        C  0.15360674  0.73424208  0.01074415    -0.04600
C381        C  0.13241565  0.72499320  0.97203246    -0.01700
C382        C  0.11491850  0.68458354  0.96662046     0.03270
C383        C  0.16070423  0.62475374  0.06396875     0.37920
C384        C  0.12581394  0.75799703  0.93868879     0.37910
C385        C  0.07857114  0.68288158  0.93773461     0.36340
C386        C  0.18729309  0.71002657  0.08012637     0.36340
N387        N  0.04621511  0.68558883  0.91941307    -0.38480
N388        N  0.20531860  0.71737670  0.11193105    -0.38480
N389        N  0.12045529  0.78413271  0.91215096    -0.37930
N390        N  0.16862718  0.59779095  0.08905802    -0.37930
C391        C  0.12075695  0.34784053  0.01807462    -0.04600
C392        C  0.10125693  0.31326530  0.04048335    -0.01710
C393        C  0.12246052  0.27439261  0.04663199     0.03270
C394        C  0.15499770  0.26414764  0.01938656    -0.04600
C395        C  0.17443397  0.29741192  0.99549121    -0.01700
C396        C  0.15949063  0.33995276  0.99809733     0.03270
C397        C  0.05608308  0.31158387  0.04773039     0.37920
C398        C  0.20744098  0.28790291  0.96606316     0.37910
C399        C  0.18112340  0.37430642  0.97606553     0.36340
C400        C  0.10789194  0.24330357  0.07817488     0.36340
N401        N  0.19863495  0.40158320  0.95848761    -0.38480
N402        N  0.09671868  0.21801599  0.10284995    -0.38480
N403        N  0.23367481  0.28032425  0.94242137    -0.37930
N404        N  0.02003913  0.30525111  0.05051500    -0.37930
C405        C  0.64471960  0.13066252  0.00635864    -0.04600
C406        C  0.67260481  0.13051829  0.04259087    -0.01710
C407        C  0.71643896  0.13786211  0.03835439     0.03270
C408        C  0.73222640  0.14847771  0.99791921    -0.04600
C409        C  0.70321659  0.15457289  0.96246186    -0.01700
C410        C  0.65961142  0.14487591  0.96655072     0.03270
C411        C  0.65553224  0.12403928  0.08435342     0.37920
C412        C  0.71840901  0.16917190  0.92148415     0.37910
C413        C  0.63055833  0.14703815  0.92942788     0.36340
C414        C  0.74533916  0.13444970  0.07558350     0.36340
N415        N  0.60731578  0.14883906  0.89984350    -0.38480
N416        N  0.76874973  0.13155116  0.10497926    -0.38480
N417        N  0.73047016  0.18102930  0.88881893    -0.37930
N418        N  0.64144401  0.12074296  0.11775878    -0.37930
C419        C  0.26728738  0.83930414  0.00611139    -0.04600
C420        C  0.30216075  0.81889699  0.02915757    -0.01710
C421        C  0.34472055  0.82843669  0.01875323     0.03270
C422        C  0.35234411  0.86183485  0.98926092    -0.04600
C423        C  0.31758090  0.87841110  0.96383883    -0.01700
C424        C  0.27579233  0.86547716  0.97038378     0.03270
C425        C  0.29478778  0.79012113  0.06504669     0.37920
C426        C  0.32368535  0.91388106  0.93520419     0.37910
C427        C  0.24167487  0.88010189  0.94055847     0.36340
C428        C  0.38038081  0.80663691  0.04077174     0.36340
N429        N  0.21475312  0.89184801  0.91669638    -0.38480
N430        N  0.40891083  0.78915385  0.05817747    -0.38480
N431        N  0.32823706  0.94453458  0.91516572    -0.37930
N432        N  0.28931097  0.76707049  0.09377249    -0.37930
C433        C  0.65026553  0.86826225  0.98436506    -0.04600
C434        C  0.67673022  0.88019222  0.95095488    -0.01710
C435        C  0.72068107  0.87108381  0.95399836     0.03270
C436        C  0.73806651  0.84847131  0.99028361    -0.04600
C437        C  0.71017574  0.83170213  0.02114184    -0.01700
C438        C  0.66600940  0.84027693  0.01697762     0.03270
C439        C  0.65730839  0.89818010  0.91190620     0.37920
C440        C  0.72690208  0.80686419  0.05786085     0.37910
C441        C  0.63635043  0.81859554  0.04426511     0.36340
C442        C  0.74761932  0.88437334  0.91950831     0.36340
N443        N  0.61242249  0.80062392  0.06534366    -0.38480
N444        N  0.76901298  0.89510145  0.89197430    -0.38480
N445        N  0.74031704  0.78709652  0.08717165    -0.37930
N446        N  0.64074227  0.91040171  0.88030853    -0.37930
C447        C  0.34548743  0.11659784  0.99840647    -0.04600
C448        C  0.34066375  0.14940520  0.02798744    -0.01710
C449        C  0.29930039  0.16375327  0.03741947     0.03270
C450        C  0.26330877  0.14937460  0.01341196    -0.04600
C451        C  0.26917772  0.12174532  0.97972392    -0.01700
C452        C  0.30818434  0.10110470  0.97660414     0.03270
C453        C  0.37731502  0.16480441  0.05242535     0.37920
C454        C  0.23400850  0.11179377  0.94999197     0.37910
C455        C  0.30589952  0.05928260  0.95840814     0.36340
C456        C  0.29377497  0.19119111  0.07323269     0.36340
N457        N  0.30103464  0.02507966  0.94650071    -0.38480
N458        N  0.28938490  0.21296975  0.10191334    -0.38480
N459        N  0.20531128  0.10384220  0.92737618    -0.37930
N460        N  0.40648075  0.17712721  0.07202855    -0.37930
C461        C  0.73777427  0.01380387  0.84528392    -0.04600
C462        C  0.70296432  0.99330532  0.82439609    -0.01710
C463        C  0.66131064  0.99783159  0.83961197     0.03270
C464        C  0.65577267  0.01521605  0.88023157    -0.04600
C465        C  0.69147023  0.03503576  0.90087562    -0.01700
C466        C  0.72979750  0.03935991  0.88016410     0.03270
C467        C  0.70987187  0.96532645  0.78930857     0.37920
C468        C  0.69283067  0.04531483  0.94564487     0.37910
C469        C  0.76186368  0.06886626  0.89612510     0.36340
C470        C  0.62529329  0.98112979  0.81517169     0.36340
N471        N  0.78779385  0.09207974  0.90833846    -0.38480
N472        N  0.59675907  0.96779052  0.79536331    -0.38480
N473        N  0.69719953  0.05097954  0.98182116    -0.37930
N474        N  0.71526840  0.94279733  0.76142028    -0.37930
C475        C  0.00011286  0.26853267  0.84512515    -0.04600
C476        C  0.03900422  0.28519670  0.86101762    -0.01710
C477        C  0.04161577  0.32859870  0.87091383     0.03270
C478        C  0.00521344  0.35516843  0.86576737    -0.04600
C479        C  0.96744793  0.33941133  0.84646017    -0.01700
C480        C  0.96486294  0.29608341  0.83614208     0.03270
C481        C  0.07587782  0.25746292  0.86833942     0.37920
C482        C  0.93007649  0.36676847  0.84109457     0.37910
C483        C  0.92495414  0.27924513  0.81914995     0.36340
C484        C  0.08125727  0.34576473  0.88807177     0.36340
N485        N  0.89301051  0.26584018  0.80583447    -0.38480
N486        N  0.11296295  0.35966838  0.90134512    -0.38480
N487        N  0.90028810  0.38863206  0.83703169    -0.37930
N488        N  0.10523058  0.23529019  0.87433097    -0.37930
C489        C  0.26929834  0.01579725  0.84337705    -0.04600
C490        C  0.28824317  0.05566904  0.85155255    -0.01710
C491        C  0.33265103  0.05805098  0.86126037     0.03270
C492        C  0.35852387  0.02134100  0.85931087    -0.04600
C493        C  0.34151614  0.98560199  0.83865887    -0.01700
C494        C  0.29665486  0.98163907  0.83324621     0.03270
C495        C  0.26264986  0.09419590  0.84786128     0.37920
C496        C  0.36940632  0.95021302  0.82956107     0.37910
C497        C  0.27886512  0.94120703  0.82050565     0.36340
C498        C  0.35176731  0.09776354  0.87418727     0.36340
N499        N  0.26521426  0.90853667  0.81091094    -0.38480
N500        N  0.36712487  0.12948936  0.88443760    -0.38480
N501        N  0.39168218  0.92196431  0.82253280    -0.37930
N502        N  0.24246472  0.12511539  0.84361348    -0.37930
C503        C  0.98536649  0.64955060  0.85587123    -0.04600
C504        C  0.02185457  0.66610862  0.83663557    -0.01710
C505        C  0.02572943  0.71081442  0.83037176     0.03270
C506        C  0.99273545  0.73855115  0.84272788    -0.04600
C507        C  0.95379341  0.72092949  0.85521990    -0.01700
C508        C  0.94992106  0.67643778  0.86018108     0.03270
C509        C  0.05756616  0.63809605  0.82933861     0.37920
C510        C  0.91766966  0.74845772  0.86244851     0.37910
C511        C  0.90909659  0.65733107  0.86758976     0.36340
C512        C  0.06504910  0.72839382  0.81479943     0.36340
N513        N  0.87647143  0.64114293  0.87134243    -0.38480
N514        N  0.09645692  0.74247922  0.80253341    -0.38480
N515        N  0.88901546  0.77064207  0.86821352    -0.37930
N516        N  0.08614834  0.61574912  0.82375944    -0.37930
C517        C  0.26934955  0.98884593  0.15551352    -0.04600
C518        C  0.29757167  0.02309127  0.16279059    -0.01710
C519        C  0.33930367  0.02142900  0.14757424     0.03270
C520        C  0.35292899  0.98507774  0.12634170    -0.04600
C521        C  0.32632506  0.94930532  0.12368105    -0.01700
C522        C  0.28424511  0.95146572  0.13686497     0.03270
C523        C  0.28316439  0.06061983  0.18411858     0.37920
C524        C  0.34316341  0.90975303  0.10869011     0.37910
C525        C  0.25609807  0.91541702  0.13043133     0.36340
C526        C  0.36757515  0.05750573  0.15232211     0.36340
N527        N  0.23351513  0.88692001  0.12483049    -0.38480
N528        N  0.39021932  0.08621618  0.15630753    -0.38480
N529        N  0.35760882  0.87801466  0.09817339    -0.37930
N530        N  0.27175840  0.09044093  0.20142321    -0.37930
C531        C  0.00579149  0.65229626  0.11821838    -0.04600
C532        C  0.98622011  0.65764340  0.15770341    -0.01710
C533        C  0.98422749  0.69893215  0.17486520     0.03270
C534        C  0.00940791  0.73224676  0.15769806    -0.04600
C535        C  0.03744340  0.72268579  0.12561474    -0.01700
C536        C  0.02998878  0.68671497  0.10163733     0.03270
C537        C  0.96500444  0.62230576  0.17857774     0.37920
C538        C  0.07184464  0.75149950  0.11488601     0.37910
C539        C  0.03877115  0.69159234  0.05705078     0.36340
C540        C  0.95445353  0.70726235  0.20783742     0.36340
N541        N  0.04251447  0.69987953  0.02131385    -0.38480
N542        N  0.93045298  0.71387377  0.23400057    -0.38480
N543        N  0.09931805  0.77444790  0.10685692    -0.37930
N544        N  0.94810895  0.59415599  0.19542027    -0.37930
C545        C  0.73735595  0.98988148  0.14972164    -0.04600
C546        C  0.72074802  0.95079446  0.13559442    -0.01710
C547        C  0.67634091  0.94579521  0.13021209     0.03270
C548        C  0.64849233  0.97995050  0.13669863    -0.04600
C549        C  0.66415580  0.01607675  0.15701222    -0.01700
C550        C  0.70857628  0.02198538  0.16223061     0.03270
C551        C  0.74904395  0.91543045  0.12770260     0.37920
C552        C  0.63417240  0.04529483  0.17473887     0.37910
C553        C  0.72449223  0.06119032  0.18008581     0.36340
C554        C  0.65817939  0.90452664  0.12236613     0.36340
N555        N  0.73715419  0.09241041  0.19452274    -0.38480
N556        N  0.64283094  0.87142319  0.11870943    -0.38480
N557        N  0.60994173  0.06780766  0.18973991    -0.37930
N558        N  0.77163593  0.88724045  0.12134469    -0.37930
C559        C  0.88428065  0.00221007  0.65418427    -0.04600
C560        C  0.89962173  0.97616532  0.68949724    -0.01710
C561        C  0.87842850  0.97542897  0.72770429     0.03270
C562        C  0.84933728  0.00818538  0.73568656    -0.04600
C563        C  0.83489182  0.03600365  0.70170381    -0.01700
C564        C  0.85062462  0.03134830  0.66034996     0.03270
C565        C  0.94152060  0.95654502  0.69099267     0.37920
C566        C  0.80591194  0.07078737  0.70959419     0.37910
C567        C  0.83552409  0.05984092  0.62568752     0.36340
C568        C  0.88866560  0.94211217  0.75990349     0.36340
N569        N  0.82339408  0.08274579  0.59818624    -0.38480
N570        N  0.89675514  0.91606937  0.78592314    -0.38480
N571        N  0.78286190  0.09861517  0.71592464    -0.37930
N572        N  0.97618178  0.94401390  0.69495546    -0.37930
C573        C  0.99229930  0.15125087  0.74153239    -0.04600
C574        C  0.01939140  0.11597483  0.73629847    -0.01710
C575        C  0.01991675  0.09605067  0.69705070     0.03270
C576        C  0.00020203  0.11588199  0.65965668    -0.04600
C577        C  0.97588445  0.15351587  0.66416211    -0.01700
C578        C  0.97046924  0.17004591  0.70520867     0.03270
C579        C  0.04642478  0.09912465  0.77178091     0.37920
C580        C  0.95312808  0.17309576  0.62742282     0.37910
C581        C  0.94084517  0.20503549  0.71006676     0.36340
C582        C  0.03688578  0.05283342  0.69779098     0.36340
N583        N  0.91710556  0.23292930  0.71368385    -0.38480
N584        N  0.04852300  0.01775700  0.70036865    -0.38480
N585        N  0.93479079  0.18877820  0.59823939    -0.37930
N586        N  0.06727796  0.08573188  0.80041525    -0.37930
C587        C  0.14001778  0.00663807  0.64620647    -0.04600
C588        C  0.15675806  0.96986250  0.66735235    -0.01710
C589        C  0.16225667  0.96845732  0.71230750     0.03270
C590        C  0.15405565  0.00524560  0.73592249    -0.04600
C591        C  0.14528257  0.04420532  0.71343927    -0.01700
C592        C  0.13697783  0.04464194  0.66886400     0.03270
C593        C  0.17061075  0.93481201  0.64218962     0.37920
C594        C  0.14592750  0.08391735  0.73592497     0.37910
C595        C  0.12340990  0.08377530  0.64641896     0.36340
C596        C  0.17707107  0.92942943  0.73398340     0.36340
N597        N  0.11245565  0.11499774  0.62858777    -0.38480
N598        N  0.18900960  0.89806772  0.75085853    -0.38480
N599        N  0.14722667  0.11568319  0.75374937    -0.37930
N600        N  0.18333286  0.90789604  0.62157885    -0.37930
C601        C  0.00224436  0.86308913  0.64391498    -0.04600
C602        C  0.03980991  0.85813400  0.66958397    -0.01710
C603        C  0.03782192  0.85355662  0.71431396     0.03270
C604        C  0.99789260  0.85100943  0.73339707    -0.04600
C605        C  0.96054225  0.84800465  0.70679959    -0.01700
C606        C  0.96259576  0.85528139  0.66219432     0.03270
C607        C  0.08025640  0.85640528  0.64920205     0.37920
C608        C  0.92006253  0.83796596  0.72530207     0.37910
C609        C  0.92382369  0.85796966  0.63555438     0.36340
C610        C  0.07673495  0.85020757  0.74069256     0.36340
N611        N  0.89289709  0.86021966  0.61425151    -0.38480
N612        N  0.10748211  0.84718195  0.76216850    -0.38480
N613        N  0.88782665  0.82940198  0.73997110    -0.37930
N614        N  0.11209884  0.85323910  0.63223118    -0.37930
C615        C  0.15600218  0.99534630  0.26391237    -0.04600
C616        C  0.12116934  0.02322453  0.26819001    -0.01710
C617        C  0.09982833  0.02359807  0.30643648     0.03270
C618        C  0.11826445  0.00336788  0.34418992    -0.04600
C619        C  0.15630703  0.97930952  0.34103830    -0.01700
C620        C  0.17394845  0.97370223  0.30064408     0.03270
C621        C  0.10567799  0.05020840  0.23220155     0.37920
C622        C  0.17506315  0.95679064  0.37829415     0.37910
C623        C  0.20886388  0.94379775  0.29671070     0.36340
C624        C  0.05660661  0.04065913  0.30413017     0.36340
N625        N  0.23667384  0.91985189  0.29359597    -0.38480
N626        N  0.02162022  0.05250299  0.30047037    -0.38480
N627        N  0.19018498  0.93866546  0.40786285    -0.37930
N628        N  0.09364131  0.07068875  0.20281623    -0.37930
C629        C  0.00056254  0.84594400  0.26566897    -0.04600
C630        C  0.96723307  0.87471044  0.27268493    -0.01710
C631        C  0.96741065  0.89698700  0.31049614     0.03270
C632        C  0.99498723  0.88454765  0.34548918    -0.04600
C633        C  0.02508288  0.85150647  0.34037754    -0.01700
C634        C  0.02914394  0.83356799  0.29986658     0.03270
C635        C  0.93356895  0.88306609  0.24015814     0.37920
C636        C  0.05489927  0.83923556  0.37514287     0.37910
C637        C  0.06405279  0.80443293  0.29290945     0.36340
C638        C  0.94467085  0.93702380  0.30957485     0.36340
N639        N  0.09194989  0.78122707  0.28734431    -0.38480
N640        N  0.92967408  0.97062988  0.30638808    -0.38480
N641        N  0.07886484  0.82941279  0.40272346    -0.37930
N642        N  0.90673313  0.88975651  0.21441466    -0.37930
C643        C  0.86220678  0.01732739  0.35240550    -0.04600
C644        C  0.86901099  0.05028783  0.32191456    -0.01710
C645        C  0.86262538  0.04349774  0.27795575     0.03270
C646        C  0.84622150  0.00430455  0.26413539    -0.04600
C647        C  0.83251383  0.97386939  0.29517706    -0.01700
C648        C  0.84069119  0.98040445  0.33926422     0.03270
C649        C  0.88249806  0.09140628  0.33638146     0.37920
C650        C  0.81228011  0.93475947  0.28183758     0.37910
C651        C  0.82951555  0.94813405  0.37083443     0.36340
C652        C  0.87341533  0.07670756  0.24706816     0.36340
N653        N  0.82028743  0.92260306  0.39617129    -0.38480
N654        N  0.88233825  0.10297857  0.22235666    -0.38480
N655        N  0.79583174  0.90369039  0.27122107    -0.37930
N656        N  0.89174090  0.12464077  0.34831274    -0.37930
C657        C  0.99357995  0.35275897  0.12874103    -0.04600
C658        C  0.95837449  0.32519200  0.12408507    -0.01710
C659        C  0.96275495  0.28123379  0.13434364     0.03270
C660        C  0.00213449  0.26462582  0.15085152    -0.04600
C661        C  0.03604224  0.29315740  0.15983463    -0.01700
C662        C  0.03191117  0.33694475  0.14827628     0.03270
C663        C  0.91783793  0.34221325  0.10748664     0.37920
C664        C  0.07579515  0.27730571  0.17964906     0.37910
C665        C  0.06803375  0.36516337  0.15366242     0.36340
C666        C  0.92668686  0.25313533  0.12781721     0.36340
N667        N  0.09684439  0.38771299  0.15787180    -0.38480
N668        N  0.89793933  0.23071594  0.12247764    -0.38480
N669        N  0.10745529  0.26467918  0.19559975    -0.37930
N670        N  0.88542382  0.35611402  0.09478630    -0.37930
C671        C  0.01574217  0.15902286  0.26945709    -0.04600
C672        C  0.98185668  0.17180805  0.29508729    -0.01710
C673        C  0.98590758  0.16718599  0.34005711     0.03270
C674        C  0.02080732  0.14484190  0.35904831    -0.04600
C675        C  0.05710094  0.13862165  0.33479517    -0.01700
C676        C  0.05514489  0.14765648  0.29026275     0.03270
C677        C  0.94300288  0.18984308  0.27541734     0.37920
C678        C  0.09605571  0.12237202  0.35583049     0.37910
C679        C  0.09383308  0.14769697  0.26658071     0.36340
C680        C  0.95558507  0.18670463  0.36726931     0.36340
N681        N  0.12503644  0.14892684  0.24810226    -0.38480
N682        N  0.93188625  0.20284016  0.38922930    -0.38480
N683        N  0.12716731  0.10949326  0.37270623    -0.37930
N684        N  0.91203303  0.20434495  0.25969402    -0.37930
loop_ 
_geom_bond_atom_site_label_1 
_geom_bond_atom_site_label_2 
_geom_bond_distance 
_geom_bond_site_symmetry_2 
_ccdc_geom_bond_type 
O1          Zr37   2.472       .  S
O1           C12   1.299       .  A
O2          Zr36   2.461       .  S
O2           C13   1.297       .  A
O3           Zr9   2.481   1_655  S
O3           C14   1.300       .  A
O4           Zr9   2.457       .  S
O4           C15   1.298       .  A
O5          Zr39   2.424       .  S
O5           C15   1.290       .  A
O6          Zr38   2.469       .  S
O6           C14   1.298       .  A
O7           Zr9   2.446       .  S
O7           C13   1.295       .  A
O8           Zr9   2.503   1_545  S
O8           C12   1.304       .  A
Zr9          O10   2.361       .  S
Zr9          O11   2.342   1_465  S
Zr9          O19   2.351   1_565  S
Zr9          O17   2.362   1_455  S
O10         Zr36   2.346       .  S
O10         Zr39   2.351       .  S
O11         Zr37   2.344   1_655  S
O11         Zr38   2.353   1_545  S
C12          C57   1.526       .  S
C13         C137   1.495       .  S
C14         C128   1.514       .  S
C15         C146   1.485       .  S
H16          O17   0.966       .  S
O17         Zr36   2.364   1_655  S
O17         Zr38   2.341       .  S
H18          O19   0.966       .  S
O19         Zr37   2.350       .  S
O19         Zr39   2.376   1_545  S
O20         Zr36   2.483   1_556  S
O20          C43   1.301       .  A
O21         Zr37   2.444   1_656  S
O21          C44   1.293       .  A
O22         Zr38   2.451   1_556  S
O22          C45   1.295       .  A
O23         Zr39   2.481       .  S
O23          C46   1.300       .  A
O24         Zr39   2.463   1_545  S
O24          C47   1.298       .  A
O25         Zr38   2.448   1_545  S
O25          C48   1.293       .  A
O26         Zr40   2.450   1_655  S
O26          C49   1.296       .  A
O27         Zr40   2.502       .  S
O27          C50   1.305       .  A
O28         Zr38   2.452   1_546  S
O28          C49   1.295       .  A
O29         Zr39   2.495   1_546  S
O29          C50   1.302       .  A
O30         Zr36   2.466   1_656  S
O30          C45   1.297       .  A
O31         Zr37   2.484   1_655  S
O31          C48   1.302       .  A
O32         Zr37   2.461       .  S
O32          C47   1.297       .  A
O33         Zr36   2.460       .  S
O33          C46   1.297       .  A
O34         Zr40   2.481   1_565  S
O34          C43   1.301       .  A
O35         Zr40   2.463   1_655  S
O35          C44   1.299       .  A
Zr36         O42   2.342   1_454  S
Zr36         O54   2.364   1_554  S
Zr37         O41   2.377   1_554  S
Zr37         O52   2.351   1_454  S
Zr38         O42   2.355   1_554  S
Zr38         O52   2.349   1_564  S
Zr39         O41   2.349   1_564  S
Zr39         O54   2.347   1_554  S
Zr40         O41   2.351       .  S
Zr40         O42   2.359   1_445  S
Zr40         O54   2.349   1_545  S
Zr40         O52   2.368   1_455  S
C43         C155   1.519   1_455  S
C44         C173   1.493       .  S
C45         C342   1.502       .  S
C46         C324   1.511       .  S
C47         C317   1.501       .  S
C48         C333   1.507       .  S
C49         C182   1.493       .  S
C50         C164   1.535       .  S
H51          O52   0.965       .  S
H53          O54   0.966       .  S
C55         C671   1.498       .  S
C55          C56   1.424       .  A
C55          C60   1.391       .  A
C56          C57   1.427       .  A
C56          H61   1.082       .  S
C57          C58   1.423       .  A
C58          C59   1.414       .  A
C58          H62   1.083       .  S
C59         C660   1.495       .  S
C59          C60   1.389       .  A
C60          H63   1.085       .  S
O64         Zr76   2.472       .  S
O64          C66   1.291       .  A
O65        Zr102   2.401   1_455  S
O65          C66   1.280       .  A
C66         C674   1.483       .  S
O67         Zr79   2.476       .  S
O67          C69   1.292       .  A
O68        Zr103   2.383       .  S
O68          C69   1.277   1_565  A
C69         C587   1.476       .  S
O70         Zr79   2.487       .  S
O70          C72   1.296       .  A
O71        Zr102   2.354   1_455  S
O71          C72   1.272       .  A
C72         C618   1.494       .  S
O73         Zr76   2.493       .  S
O73          C75   1.297       .  A
O74        Zr103   2.345   1_545  S
O74          C75   1.269       .  A
C75         C576   1.497       .  S
Zr76         O82   2.385       .  S
Zr76         O83   2.372       .  S
Zr76        O106   2.370   1_455  S
Zr76        O108   2.389   1_455  S
Zr76         O77   2.433       .  S
Zr76         O78   2.435   1_455  S
O77         H120   0.990       .  S
O78         H119   0.990       .  S
O78         H123   0.990       .  S
Zr79         O83   2.383       .  S
Zr79         O82   2.378       .  S
Zr79        O107   2.373   1_545  S
Zr79        O109   2.392   1_545  S
Zr79         O80   2.434       .  S
Zr79         O81   2.434   1_545  S
O80         H121   0.990       .  S
O80         H124   0.990       .  S
O81         H114   0.990       .  S
O82        Zr102   2.364   1_455  S
O83        Zr103   2.363   1_545  S
O83         H110   0.965       .  S
O84         Zr96   2.477       .  S
O84          C86   1.294       .  A
O85        Zr103   2.357   1_655  S
O85          C86   1.272   1_565  A
C86         C559   1.489       .  S
O87         Zr99   2.452       .  S
O87          C89   1.289       .  A
O88        Zr102   2.387   1_565  S
O88          C89   1.279       .  A
C89         C632   1.484       .  S
O90         Zr99   2.470       .  S
O90          C92   1.290   1_655  A
O91        Zr103   2.382       .  S
O91          C92   1.276       .  A
C92         C601   1.477       .  S
O93         Zr96   2.477       .  S
O93          C95   1.292       .  A
O94        Zr102   2.387       .  S
O94          C95   1.279       .  A
C95         C643   1.487       .  S
Zr96        O104   2.386   1_545  S
Zr96        O105   2.381   1_545  S
Zr96        O108   2.387       .  S
Zr96        O106   2.376       .  S
Zr96         O97   2.435   1_545  S
Zr96         O98   2.433       .  S
O97         H117   0.990       .  S
O97         H122   0.990       .  S
O98         H118   0.990       .  S
Zr99        O105   2.391       .  S
Zr99        O104   2.371       .  S
Zr99        O109   2.385   1_655  S
Zr99        O107   2.376   1_655  S
Zr99        O100   2.434       .  S
Zr99        O101   2.434   1_655  S
O100        H116   0.990       .  S
O101        H115   0.990       .  S
O101        H125   0.990       .  S
Zr102       O105   2.365   1_545  S
Zr102       O107   2.369   1_645  S
Zr102       O108   2.367       .  S
Zr103       O104   2.361   1_455  S
Zr103       O106   2.360   1_465  S
Zr103       O109   2.353       .  S
O104        H112   0.966       .  S
O107        H111   0.965       .  S
O108        H113   0.966       .  S
C126        C646   1.492   1_565  S
C126        C127   1.417       .  A
C126        C131   1.387       .  A
C127        C128   1.421       .  A
C127        H132   1.083   1_565  S
C128        C129   1.422       .  A
C129        C130   1.414       .  A
C129        H133   1.083       .  S
C130        C545   1.489       .  S
C130        C131   1.388       .  A
C131        H134   1.085       .  S
C135        C534   1.490       .  S
C135        C136   1.418       .  A
C135        C140   1.396       .  A
C136        C137   1.405       .  A
C136        H141   1.084   1_455  S
C137        C138   1.402       .  A
C138        C139   1.407       .  A
C138        H142   1.084       .  S
C139        C629   1.480       .  S
C139        C140   1.394       .  A
C140        H143   1.082       .  S
C144        C517   1.479       .  S
C144        C145   1.405       .  A
C144        C149   1.400       .  A
C145        C146   1.404       .  A
C145        H150   1.084       .  S
C146        C147   1.398       .  A
C147        C148   1.408       .  A
C147        H151   1.084       .  S
C148        C615   1.491       .  S
C148        C149   1.400       .  A
C149        H152   1.083       .  S
C153        C604   1.486       .  S
C153        C154   1.417       .  A
C153        C158   1.383       .  A
C154        C155   1.424       .  A
C154        H159   1.083   1_655  S
C155        C156   1.424       .  A
C156        C157   1.417       .  A
C156        H160   1.083       .  S
C157        C506   1.487       .  S
C157        C158   1.384       .  A
C158        H161   1.086       .  S
C162        C590   1.489       .  S
C162        C163   1.417       .  A
C162        C167   1.385       .  A
C163        C164   1.425       .  A
C163        H168   1.083       .  S
C164        C165   1.434       .  A
C165        C166   1.429       .  A
C165        H169   1.083       .  S
C166        C489   1.503       .  S
C166        C167   1.386       .  A
C167        H170   1.086       .  S
C171        C573   1.492       .  S
C171        C172   1.407       .  A
C171        C176   1.396       .  A
C172        C173   1.403       .  A
C172        H177   1.084       .  S
C173        C174   1.410       .  A
C174        C175   1.410       .  A
C174        H178   1.083   1_655  S
C175        C475   1.480   1_655  S
C175        C176   1.397       .  A
C176        H179   1.084       .  S
C180        C562   1.484       .  S
C180        C181   1.409       .  A
C180        C185   1.394       .  A
C181        C182   1.401       .  A
C181        H186   1.084       .  S
C182        C183   1.404       .  A
C183        C184   1.415       .  A
C183        H187   1.084   1_545  S
C184        C461   1.491       .  S
C184        C185   1.397       .  A
C185        H188   1.081       .  S
O189       Zr201   2.455       .  S
O189        C191   1.290       .  A
O190       Zr227   2.404   1_545  S
O190        C191   1.282       .  A
C191        C405   1.478       .  S
O192       Zr204   2.438       .  S
O192        C194   1.284       .  A
O193       Zr228   2.405   1_554  S
O193        C194   1.281       .  A
C194        C520   1.473       .  S
O195       Zr204   2.470       .  S
O195        C197   1.291       .  A
O196       Zr227   2.385       .  S
O196        C197   1.279       .  A
C197        C548   1.475       .  S
O198       Zr201   2.483   1_556  S
O198        C200   1.292       .  A
O199       Zr228   2.336   1_545  S
O199        C200   1.264       .  A
C200        C447   1.491       .  S
Zr201       O207   2.376       .  S
Zr201       O208   2.385       .  S
Zr201       O231   2.356   1_554  S
Zr201       O233   2.386   1_554  S
Zr201       O202   2.435       .  S
Zr201       O203   2.434   1_554  S
O202        H245   0.990       .  S
O203        H244   0.990       .  S
O203        H248   0.990       .  S
Zr204       O208   2.402   1_565  S
Zr204       O207   2.382   1_565  S
Zr204       O232   2.380       .  S
Zr204       O234   2.411       .  S
Zr204       O205   2.435   1_565  S
Zr204       O206   2.433       .  S
O205        H246   0.990       .  S
O205        H249   0.990       .  S
O206        H239   0.990       .  S
O207       Zr227   2.380   1_545  S
O208       Zr228   2.375   1_544  S
O208        H235   0.966       .  S
O209       Zr221   2.447       .  S
O209        C211   1.283       .  A
O210       Zr228   2.437   1_545  S
O210        C211   1.284       .  A
C211        C492   1.494       .  S
O212       Zr224   2.462       .  S
O212        C214   1.290       .  A
O213       Zr227   2.399   1_556  S
O213        C214   1.283       .  A
C214        C433   1.476       .  S
O215       Zr224   2.473       .  S
O215        C217   1.289       .  A
O216       Zr228   2.369       .  S
O216        C217   1.274       .  A
C217        C422   1.491       .  S
O218       Zr221   2.481       .  S
O218        C220   1.295       .  A
O219       Zr227   2.365   1_546  S
O219        C220   1.274       .  A
C220        C464   1.496       .  S
Zr221       O229   2.412   1_545  S
Zr221       O230   2.352   1_545  S
Zr221       O233   2.370       .  S
Zr221       O231   2.366       .  S
Zr221       O222   2.433   1_545  S
Zr221       O223   2.439       .  S
O222        H242   0.990       .  S
O222        H247   0.990       .  S
O223        H243   0.989       .  S
Zr224       O230   2.395       .  S
Zr224       O229   2.409       .  S
Zr224       O234   2.398   1_556  S
Zr224       O232   2.389   1_556  S
Zr224       O225   2.433       .  S
Zr224       O226   2.434   1_556  S
O225        H241   0.990       .  S
O226        H240   0.990       .  S
O226        H250   0.990       .  S
Zr227       O230   2.383   1_554  S
Zr227       O232   2.367       .  S
Zr227       O233   2.400   1_564  S
Zr228       O229   2.372       .  S
Zr228       O231   2.310   1_565  S
Zr228       O234   2.345   1_556  S
O229        H237   0.966       .  S
O232        H236   0.966       .  S
O233        H238   0.966       .  S
O251       Zr263   2.508   1_554  S
O251        C253   1.299       .  A
O252       Zr289   2.336   1_455  S
O252        C253   1.267   1_556  A
C253        C391   1.490       .  S
O254       Zr266   2.480   1_455  S
O254        C256   1.294   1_455  A
O255       Zr290   2.384   1_554  S
O255        C256   1.278       .  A
C256        C531   1.496   1_655  S
O257       Zr266   2.463       .  S
O257        C259   1.289       .  A
O258       Zr289   2.392   1_554  S
O258        C259   1.278       .  A
C259        C657   1.483       .  S
O260       Zr263   2.467       .  S
O260        C262   1.291       .  A
O261       Zr290   2.389   1_455  S
O261        C262   1.280       .  A
C262        C377   1.491       .  S
Zr263       O269   2.373   1_556  S
Zr263       O270   2.381   1_556  S
Zr263       O293   2.402       .  S
Zr263       O295   2.364       .  S
Zr263       O264   2.433   1_556  S
Zr263       O265   2.435       .  S
O264        H307   0.990       .  S
O265        H306   0.990       .  S
O265        H310   0.990       .  S
Zr266       O270   2.373   1_655  S
Zr266       O269   2.386   1_655  S
Zr266       O294   2.390       .  S
Zr266       O296   2.377       .  S
Zr266       O267   2.435   1_655  S
Zr266       O268   2.434       .  S
O267        H308   0.990       .  S
O267        H311   0.990       .  S
O268        H301   0.990       .  S
O269       Zr289   2.361   1_454  S
O270       Zr290   2.376   1_454  S
O270        H297   0.965       .  S
O271       Zr283   2.454       .  S
O271        C273   1.287       .  A
O272       Zr290   2.409       .  S
O272        C273   1.284       .  A
C273        C503   1.484       .  S
O274       Zr286   2.507       .  S
O274        C276   1.300       .  A
O275       Zr289   2.344       .  S
O275        C276   1.269       .  A
C276        C363   1.495       .  S
O277       Zr286   2.473       .  S
O277        C279   1.292       .  A
O278       Zr290   2.384       .  S
O278        C279   1.280       .  A
C279        C352   1.477   1_556  S
O280       Zr283   2.438   1_455  S
O280        C282   1.284       .  A
O281       Zr289   2.397   1_455  S
O281        C282   1.279       .  A
C282        C478   1.472       .  S
Zr283       O291   2.380       .  S
Zr283       O292   2.387       .  S
Zr283       O295   2.385   1_655  S
Zr283       O293   2.379   1_655  S
Zr283       O284   2.435       .  S
Zr283       O285   2.434   1_655  S
O284        H304   0.990       .  S
O284        H309   0.990       .  S
O285        H305   0.990       .  S
Zr286       O292   2.375       .  S
Zr286       O291   2.388       .  S
Zr286       O296   2.391   1_556  S
Zr286       O294   2.366   1_556  S
Zr286       O287   2.433       .  S
Zr286       O288   2.434   1_556  S
O287        H303   0.990       .  S
O288        H302   0.990       .  S
O288        H312   0.990       .  S
Zr289       O292   2.356       .  S
Zr289       O294   2.362   1_556  S
Zr289       O295   2.360   1_655  S
Zr290       O291   2.366       .  S
Zr290       O293   2.366   1_655  S
Zr290       O296   2.366   1_556  S
O291        H299   0.966       .  S
O294        H298   0.966       .  S
O295        H300   0.966       .  S
C313        C450   1.483       .  S
C313        C314   1.389       .  A
C313        C318   1.412       .  A
C314        C315   1.390       .  A
C314        H319   1.082       .  S
C315        C394   1.487       .  S
C315        C316   1.419       .  A
C316        C317   1.408       .  A
C316        H320   1.083       .  S
C317        C318   1.405       .  A
C318        H321   1.084       .  S
C322        C419   1.491       .  S
C322        C323   1.422       .  A
C322        C327   1.389       .  A
C323        C324   1.415       .  A
C323        H328   1.083       .  S
C324        C325   1.413       .  A
C325        C326   1.412       .  A
C325        H329   1.083       .  S
C326        C380   1.479       .  S
C326        C327   1.384       .  A
C327        H330   1.085       .  S
C331        C408   1.486       .  S
C331        C332   1.413   1_556  A
C331        C336   1.392       .  A
C332        C333   1.416       .  A
C332        H337   1.083       .  S
C333        C334   1.409   1_554  A
C334        C335   1.416       .  A
C334        H338   1.083   1_556  S
C335        C366   1.493       .  S
C335        C336   1.391       .  A
C336        H339   1.084       .  S
C340        C349   1.488       .  S
C340        C341   1.412       .  A
C340        C345   1.392       .  A
C341        C342   1.416       .  A
C341        H346   1.083       .  S
C342        C343   1.416       .  A
C343        C344   1.408       .  A
C343        H347   1.083       .  S
C344        C436   1.488       .  S
C344        C345   1.391       .  A
C345        H348   1.085       .  S
C349        C350   1.422       .  A
C349        C354   1.412   1_556  A
C350        C351   1.412       .  A
C350        C355   1.450       .  S
C351        C352   1.401   1_556  A
C351        C358   1.448       .  S
C352        C353   1.407       .  A
C353        C354   1.406       .  A
C353        C356   1.444       .  S
C354        C357   1.452       .  S
C355        N362   1.157       .  T
C356        N361   1.155       .  T
C357        N359   1.157       .  T
C358        N360   1.158       .  T
C363        C364   1.413   1_556  A
C363        C368   1.428       .  A
C364        C365   1.419       .  A
C364        C369   1.450       .  S
C365        C366   1.422   1_554  A
C365        C372   1.450       .  S
C366        C367   1.401       .  A
C367        C368   1.396       .  A
C367        C370   1.456       .  S
C368        C371   1.446       .  S
C369        N376   1.157       .  T
C370        N375   1.157       .  T
C371        N373   1.156       .  T
C372        N374   1.157       .  T
C377        C378   1.413   1_556  A
C377        C382   1.419       .  A
C378        C379   1.416       .  A
C378        C383   1.449       .  S
C379        C380   1.415       .  A
C379        C386   1.449       .  S
C380        C381   1.400   1_554  A
C381        C382   1.397       .  A
C381        C384   1.458       .  S
C382        C385   1.431       .  S
C383        N390   1.157       .  T
C384        N389   1.158       .  T
C385        N387   1.149       .  T
C386        N388   1.157       .  T
C391        C392   1.429       .  A
C391        C396   1.413   1_554  A
C392        C393   1.391       .  A
C392        C397   1.446       .  S
C393        C394   1.399       .  A
C393        C400   1.457       .  S
C394        C395   1.421   1_554  A
C395        C396   1.418       .  A
C395        C398   1.449       .  S
C396        C399   1.449       .  S
C397        N404   1.156       .  T
C398        N403   1.157       .  T
C399        N401   1.157       .  T
C400        N402   1.157       .  T
C405        C406   1.407       .  A
C405        C410   1.410   1_554  A
C406        C407   1.407       .  A
C406        C411   1.443       .  S
C407        C408   1.410   1_554  A
C407        C414   1.451       .  S
C408        C409   1.417       .  A
C409        C410   1.414       .  A
C409        C412   1.450       .  S
C410        C413   1.450       .  S
C411        N418   1.155       .  T
C412        N417   1.157       .  T
C413        N415   1.157       .  T
C414        N416   1.157       .  T
C419        C420   1.426       .  A
C419        C424   1.404   1_554  A
C420        C421   1.419       .  A
C420        C425   1.448       .  S
C421        C422   1.405   1_554  A
C421        C428   1.449       .  S
C422        C423   1.413       .  A
C423        C424   1.396       .  A
C423        C426   1.427       .  S
C424        C427   1.457       .  S
C425        N432   1.157       .  T
C426        N431   1.146       .  T
C427        N429   1.158       .  T
C428        N430   1.157       .  T
C433        C434   1.405       .  A
C433        C438   1.401   1_556  A
C434        C435   1.406       .  A
C434        C439   1.444       .  S
C435        C436   1.412       .  A
C435        C442   1.451       .  S
C436        C437   1.421   1_556  A
C437        C438   1.411       .  A
C437        C440   1.450       .  S
C438        C441   1.448       .  S
C439        N446   1.155       .  T
C440        N445   1.157       .  T
C441        N443   1.158       .  T
C442        N444   1.157       .  T
C447        C448   1.417   1_556  A
C447        C452   1.428       .  A
C448        C449   1.417       .  A
C448        C453   1.450       .  S
C449        C450   1.416       .  A
C449        C456   1.450       .  S
C450        C451   1.403   1_554  A
C451        C452   1.390       .  A
C451        C454   1.458       .  S
C452        C455   1.447       .  S
C453        N460   1.157       .  T
C454        N459   1.157       .  T
C455        N457   1.156       .  T
C456        N458   1.157       .  T
C461        C462   1.419   1_545  A
C461        C466   1.404       .  A
C462        C463   1.417       .  A
C462        C467   1.450       .  S
C463        C464   1.417   1_565  A
C463        C470   1.450       .  S
C464        C465   1.427       .  A
C465        C466   1.394       .  A
C465        C468   1.448       .  S
C466        C469   1.456       .  S
C467        N474   1.157       .  T
C468        N473   1.156       .  T
C469        N471   1.157       .  T
C470        N472   1.157       .  T
C475        C476   1.410       .  A
C475        C480   1.415   1_455  A
C476        C477   1.408       .  A
C476        C481   1.451       .  S
C477        C478   1.412       .  A
C477        C484   1.449       .  S
C478        C479   1.409   1_455  A
C479        C480   1.409       .  A
C479        C482   1.451       .  S
C480        C483   1.451       .  S
C481        N488   1.157       .  T
C482        N487   1.157       .  T
C483        N485   1.157       .  T
C484        N486   1.156       .  T
C489        C490   1.414       .  A
C489        C494   1.421   1_545  A
C490        C491   1.418       .  A
C490        C495   1.447       .  S
C491        C492   1.410       .  A
C491        C498   1.448       .  S
C492        C493   1.409   1_545  A
C493        C494   1.418       .  A
C493        C496   1.452       .  S
C494        C497   1.450       .  S
C495        N502   1.157       .  T
C496        N501   1.157       .  T
C497        N499   1.157       .  T
C498        N500   1.157       .  T
C503        C504   1.410   1_655  A
C503        C508   1.406       .  A
C504        C505   1.417       .  A
C504        C509   1.450       .  S
C505        C506   1.422   1_455  A
C505        C512   1.451       .  S
C506        C507   1.409       .  A
C507        C508   1.407       .  A
C507        C510   1.450       .  S
C508        C511   1.442       .  S
C509        N516   1.157       .  T
C510        N515   1.157       .  T
C511        N513   1.154       .  T
C512        N514   1.157       .  T
C517        C518   1.415   1_565  A
C517        C522   1.411       .  A
C518        C519   1.413       .  A
C518        C523   1.450       .  S
C519        C520   1.410   1_545  A
C519        C526   1.450       .  S
C520        C521   1.405       .  A
C521        C522   1.401       .  A
C521        C524   1.445       .  S
C522        C525   1.453       .  S
C523        N530   1.157       .  T
C524        N529   1.154       .  T
C525        N527   1.157       .  T
C526        N528   1.157       .  T
C531        C532   1.417   1_455  A
C531        C536   1.421       .  A
C532        C533   1.419       .  A
C532        C537   1.449       .  S
C533        C534   1.420   1_655  A
C533        C540   1.449       .  S
C534        C535   1.400       .  A
C535        C536   1.390       .  A
C535        C538   1.455       .  S
C536        C539   1.439       .  S
C537        N544   1.157       .  T
C538        N543   1.157       .  T
C539        N541   1.153       .  T
C540        N542   1.157       .  T
C545        C546   1.412       .  A
C545        C550   1.423   1_565  A
C546        C547   1.408       .  A
C546        C551   1.450       .  S
C547        C548   1.404       .  A
C547        C554   1.442       .  S
C548        C549   1.399   1_565  A
C549        C550   1.411       .  A
C549        C552   1.448       .  S
C550        C553   1.450       .  S
C551        N558   1.157       .  T
C552        N557   1.158       .  T
C553        N555   1.157       .  T
C554        N556   1.154       .  T
C559        C560   1.423   1_545  A
C559        C564   1.416       .  A
C560        C561   1.392       .  A
C560        C565   1.447       .  S
C561        C562   1.405   1_565  A
C561        C568   1.457       .  S
C562        C563   1.416       .  A
C563        C564   1.416       .  A
C563        C566   1.450       .  S
C564        C567   1.450       .  S
C565        N572   1.156       .  T
C566        N571   1.157       .  T
C567        N569   1.157       .  T
C568        N570   1.157       .  T
C573        C574   1.409   1_655  A
C573        C578   1.417       .  A
C574        C575   1.397       .  A
C574        C579   1.457       .  S
C575        C576   1.428       .  A
C575        C582   1.453       .  S
C576        C577   1.416   1_455  A
C577        C578   1.418       .  A
C577        C580   1.450       .  S
C578        C581   1.450       .  S
C579        N586   1.157       .  T
C580        N585   1.157       .  T
C581        N583   1.157       .  T
C582        N584   1.157       .  T
C587        C588   1.403   1_545  A
C587        C592   1.411       .  A
C588        C589   1.413       .  A
C588        C593   1.447       .  S
C589        C590   1.417   1_565  A
C589        C596   1.448       .  S
C590        C591   1.413       .  A
C591        C592   1.411       .  A
C591        C594   1.450       .  S
C592        C595   1.450       .  S
C593        N600   1.157       .  T
C594        N599   1.157       .  T
C595        N597   1.157       .  T
C596        N598   1.157       .  T
C601        C602   1.407       .  A
C601        C606   1.410   1_455  A
C602        C603   1.409       .  A
C602        C607   1.445       .  S
C603        C604   1.411   1_455  A
C603        C610   1.450       .  S
C604        C605   1.417       .  A
C605        C606   1.414       .  A
C605        C608   1.449       .  S
C606        C609   1.450       .  S
C607        N614   1.155       .  T
C608        N613   1.157       .  T
C609        N611   1.157       .  T
C610        N612   1.157       .  T
C615        C616   1.409   1_565  A
C615        C620   1.415       .  A
C616        C617   1.396       .  A
C616        C621   1.457       .  S
C617        C618   1.427       .  A
C617        C624   1.454       .  S
C618        C619   1.417   1_545  A
C619        C620   1.417       .  A
C619        C622   1.450       .  S
C620        C623   1.450       .  S
C621        N628   1.157       .  T
C622        N627   1.157       .  T
C623        N625   1.157       .  T
C624        N626   1.158       .  T
C629        C630   1.406   1_455  A
C629        C634   1.415       .  A
C630        C631   1.394       .  A
C630        C635   1.457       .  S
C631        C632   1.415       .  A
C631        C638   1.440       .  S
C632        C633   1.415   1_655  A
C633        C634   1.414       .  A
C633        C636   1.450       .  S
C634        C637   1.450       .  S
C635        N642   1.158       .  T
C636        N641   1.157       .  T
C637        N639   1.157       .  T
C638        N640   1.152       .  T
C643        C644   1.410       .  A
C643        C648   1.408   1_545  A
C644        C645   1.408       .  A
C644        C649   1.441       .  S
C645        C646   1.410       .  A
C645        C652   1.452       .  S
C646        C647   1.423   1_545  A
C647        C648   1.417       .  A
C647        C650   1.450       .  S
C648        C651   1.449       .  S
C649        N656   1.153       .  T
C650        N655   1.157       .  T
C651        N653   1.157       .  T
C652        N654   1.157       .  T
C657        C658   1.413       .  A
C657        C662   1.409   1_655  A
C658        C659   1.412       .  A
C658        C663   1.449       .  S
C659        C660   1.412   1_655  A
C659        C666   1.451       .  S
C660        C661   1.420       .  A
C661        C662   1.414       .  A
C661        C664   1.451       .  S
C662        C665   1.450       .  S
C663        N670   1.156       .  T
C664        N669   1.157       .  T
C665        N667   1.157       .  T
C666        N668   1.157       .  T
C671        C672   1.421   1_455  A
C671        C676   1.414       .  A
C672        C673   1.414       .  A
C672        C677   1.449       .  S
C673        C674   1.401   1_655  A
C673        C680   1.448       .  S
C674        C675   1.410       .  A
C675        C676   1.415       .  A
C675        C678   1.449       .  S
C676        C679   1.448       .  S
C677        N684   1.157       .  T
C678        N683   1.157       .  T
C679        N681   1.157       .  T
C680        N682   1.158       .  T
