geometry optimzed in LAMMPS
_audit_creation_date              2020-11-30 
_audit_creation_method            'lammps2cif' 
_symmetry_space_group_name_H-M    'P1' 
_symmetry_Int_Tables_number       1 
_symmetry_cell_setting            triclinic 
loop_ 
_symmetry_equiv_pos_as_xyz 
  x,y,z 
_cell_length_a                    25.389130188552624 
_cell_length_b                    25.380104791826064 
_cell_length_c                    25.45452527110301 
_cell_angle_alpha                 89.93194293208565 
_cell_angle_beta                  89.86174845530032 
_cell_angle_gamma                 89.98158571645948 
loop_ 
_atom_site_label 
_atom_site_type_symbol 
_atom_site_fract_x 
_atom_site_fract_y 
_atom_site_fract_z 
_atom_site_charge 
C1          C  0.72826948  0.72959914  0.00449250     0.02870
C2          C  0.74338353  0.67621652  0.00707878    -0.13270
C3          C  0.70568538  0.63637975  0.00227535     0.00380
C4          C  0.65265961  0.64969137  0.99647491    -0.11800
C5          C  0.63666990  0.70242841  0.99378802     0.02870
C6          C  0.67474235  0.74240736  0.99708585    -0.11220
H7          H  0.78450817  0.66564406  0.01140105     0.08460
H8          H  0.62362577  0.61851946  0.99320886     0.05990
H9          H  0.66294111  0.78315237  0.99238038     0.05840
C10         C  0.73034296  0.32044390  0.99556090     0.02870
C11         C  0.74549086  0.37385659  0.99390830    -0.13270
C12         C  0.70736266  0.41362962  0.99541089     0.00380
C13         C  0.65407537  0.40029006  0.99813351    -0.11800
C14         C  0.63835502  0.34757187  0.99996428     0.02870
C15         C  0.67645483  0.30762385  0.99952637    -0.11220
H16         H  0.78674892  0.38448905  0.99126832     0.08460
H17         H  0.62459402  0.43123493  0.99912180     0.05990
H18         H  0.66416699  0.26691109  0.00310519     0.05840
C19         C  0.32195348  0.32276501  0.00200582     0.02870
C20         C  0.37654924  0.31218395  0.99643198    -0.13270
C21         C  0.41406228  0.35125777  0.00701408     0.00390
C22         C  0.39740215  0.40280990  0.01626800    -0.11800
C23         C  0.34396611  0.41452242  0.02035814     0.02870
C24         C  0.30680129  0.37415447  0.01701050    -0.11220
H25         H  0.39071694  0.27378175  0.98483067     0.08460
H26         H  0.42624352  0.43410479  0.02003465     0.05990
H27         H  0.26640860  0.38357970  0.02623017     0.05840
C28         C  0.32198720  0.72841034  0.00014362     0.02870
C29         C  0.37482591  0.73989766  0.98763298    -0.13270
C30         C  0.41283239  0.69984858  0.98761762     0.00380
C31         C  0.39766729  0.64799246  0.99853550    -0.11800
C32         C  0.34506303  0.63581913  0.00898239     0.02870
C33         C  0.30744818  0.67590678  0.01065537    -0.11220
H34         H  0.38647141  0.77968639  0.97753807     0.08460
H35         H  0.42689672  0.61681224  0.99861892     0.05990
H36         H  0.26685976  0.66600717  0.01947756     0.05840
C37         C  0.72815143  0.02960383  0.70549476     0.02870
C38         C  0.67416625  0.02192794  0.71625043    -0.13270
C39         C  0.63727764  0.02209872  0.67522837     0.00380
C40         C  0.65466291  0.02986392  0.62352844    -0.11800
C41         C  0.70825599  0.03512813  0.61222885     0.02870
C42         C  0.74481375  0.03577698  0.65307926    -0.11220
H43         H  0.66098062  0.01461928  0.75609236     0.08460
H44         H  0.62644218  0.03013482  0.59160227     0.05990
H45         H  0.78627470  0.04030292  0.64388916     0.05840
C46         C  0.32014532  0.02237420  0.70399012     0.02870
C47         C  0.37419146  0.01986837  0.71606344    -0.13270
C48         C  0.41194916  0.02120927  0.67576368     0.00380
C49         C  0.39515933  0.02539206  0.62351792    -0.11800
C50         C  0.34153231  0.02768339  0.61090463     0.02870
C51         C  0.30405738  0.02647585  0.65127985    -0.11220
H52         H  0.38670977  0.01641815  0.75657892     0.08460
H53         H  0.42416014  0.02612752  0.59215805     0.05990
H54         H  0.26249476  0.02734361  0.64169678     0.05840
C55         C  0.31711507  0.01217387  0.29841133     0.02870
C56         C  0.29845615  0.02262514  0.34935004    -0.13270
C57         C  0.33355875  0.03838128  0.38820674     0.00380
C58         C  0.38570209  0.04896275  0.37467881    -0.11800
C59         C  0.40787511  0.02961556  0.32749711     0.02870
C60         C  0.37212524  0.01138931  0.28896210    -0.11220
H61         H  0.25702052  0.01886516  0.35879827     0.08460
H62         H  0.40973522  0.06733452  0.40447585     0.05990
H63         H  0.38569286  0.99579956  0.25204165     0.05840
C64         C  0.73032359  0.03271406  0.29854540     0.02870
C65         C  0.74778414  0.03778314  0.35063247    -0.13270
C66         C  0.71474402  0.02319792  0.39174738     0.00380
C67         C  0.66361102  0.00691765  0.38079757    -0.11800
C68         C  0.64036140  0.01864695  0.33219944     0.02870
C69         C  0.67530652  0.02790602  0.28949048    -0.11220
H70         H  0.78773185  0.05009425  0.35907341     0.08460
H71         H  0.64094286  0.98918394  0.41207446     0.05990
H72         H  0.66066750  0.03045352  0.24981099     0.05840
C73         C  0.02195705  0.31987604  0.70147304     0.02870
C74         C  0.02685874  0.37377067  0.71438870    -0.13270
C75         C  0.03038932  0.41201654  0.67461270     0.00380
C76         C  0.02698515  0.39630805  0.62204696    -0.11800
C77         C  0.02288366  0.34308404  0.60854748     0.02870
C78         C  0.02114920  0.30482314  0.64820438    -0.11220
H79         H  0.02850884  0.38583445  0.75517138     0.08460
H80         H  0.02814059  0.42582273  0.59120117     0.05990
H81         H  0.01916512  0.26355198  0.63757925     0.05840
C82         C  0.02798341  0.72920389  0.70513168     0.02870
C83         C  0.02539585  0.74524639  0.65238834    -0.13270
C84         C  0.02594802  0.70764344  0.61227741     0.00380
C85         C  0.02889802  0.65406763  0.62494972    -0.11800
C86         C  0.03151314  0.63738915  0.67742168     0.02870
C87         C  0.03116392  0.67525579  0.71766494    -0.11220
H88         H  0.02314137  0.78677484  0.64265891     0.08460
H89         H  0.02929797  0.62511528  0.59363661     0.05990
H90         H  0.03371053  0.66294172  0.75835373     0.05840
C91         C  0.03106650  0.32282363  0.29280483     0.02870
C92         C  0.03099176  0.30775931  0.34624025    -0.13270
C93         C  0.02692907  0.34581992  0.38582349     0.00380
C94         C  0.02593812  0.39913281  0.37222182    -0.11800
C95         C  0.02527324  0.41511001  0.31964128     0.02870
C96         C  0.02710621  0.37683896  0.27985645    -0.11220
H97         H  0.03250244  0.26647249  0.35701882     0.08460
H98         H  0.02371033  0.42854185  0.40305604     0.05990
H99         H  0.02385455  0.38900507  0.23920334     0.05840
C100        C  0.02408017  0.73151354  0.29712427     0.02870
C101        C  0.02380244  0.74759285  0.35001147    -0.13270
C102        C  0.02133176  0.70989704  0.39018137     0.00380
C103        C  0.01885675  0.65635567  0.37740500    -0.11800
C104        C  0.01780761  0.63988518  0.32490885     0.02870
C105        C  0.02125874  0.67759121  0.28475368    -0.11220
H106        H  0.02531826  0.78911596  0.35977235     0.08460
H107        H  0.01739806  0.62728440  0.40864560     0.05990
H108        H  0.02051322  0.66516125  0.24404079     0.05840
O109        O  0.93835806  0.87447228  0.99918817    -0.80390
O110        O  0.94108748  0.17527709  0.99930435    -0.81940
O111        O  0.87315802  0.02870249  0.08371839    -0.78960
O112        O  0.87520383  0.02594678  0.91300890    -0.77340
O113        O  0.93896172  0.02489566  0.84939996    -0.79130
O114        O  0.93632808  0.02779464  0.14750751    -0.80070
O115        O  0.87675372  0.11212012  0.99719358    -0.81390
O116        O  0.87500302  0.93857080  0.00044528    -0.81680
Eu117      Eu  0.91875505  0.02515997  0.99881083     2.39200
O118        O  0.97282529  0.07864365  0.94582528    -0.89190
O119        O  0.97079952  0.97079465  0.05264111    -0.92800
C120        C  0.89003619  0.88994020  0.99968955     1.01890
C121        C  0.89247694  0.16043100  0.99845737     1.01710
C122        C  0.88781588  0.02979584  0.13213771     1.01660
C123        C  0.89044128  0.02520277  0.86463771     0.99520
H124        H  0.95093155  0.10061864  0.07370058     0.29260
O125        O  0.97267653  0.07813234  0.05208527    -1.01580
H126        H  0.94949087  0.94923751  0.92326775     0.29300
O127        O  0.97146778  0.97108372  0.94519639    -1.04120
O128        O  0.11480746  0.17266730  0.99682839    -0.81350
O129        O  0.11013536  0.87317595  0.99860984    -0.80880
O130        O  0.02601359  0.11061782  0.14923319    -0.79320
O131        O  0.02349629  0.11155168  0.84893768    -0.82660
O132        O  0.02754629  0.93846187  0.84865674    -0.80520
O133        O  0.02007091  0.93671873  0.14872958    -0.79170
O134        O  0.17460101  0.02094686  0.08665328    -0.80690
O135        O  0.17588828  0.02058817  0.91384469    -0.82610
O136        O  0.11073807  0.01921980  0.15037061    -0.79350
O137        O  0.11252695  0.02522194  0.84998118    -0.82030
O138        O  0.02869565  0.17433987  0.08550567    -0.77760
O139        O  0.02439792  0.87313567  0.08494125    -0.77790
O140        O  0.02623454  0.87454081  0.91239036    -0.77440
O141        O  0.02689492  0.17509337  0.91266591    -0.80930
O142        O  0.17690967  0.10794628  0.99824212    -0.80360
O143        O  0.17439828  0.93606468  0.99848344    -0.78690
Eu144      Eu  0.02724358  0.13115548  0.99909063     2.39770
Eu145      Eu  0.02443001  0.91745582  0.99898739     2.39570
Eu146      Eu  0.02436064  0.02383443  0.10624965     2.38400
Eu147      Eu  0.02557238  0.02474979  0.89233331     2.39880
Eu148      Eu  0.13189995  0.02272218  0.99986235     2.39790
O149        O  0.07829557  0.97052781  0.94578123    -0.93100
O150        O  0.07931878  0.07703829  0.05341776    -0.91990
C151        C  0.16316572  0.15672491  0.99648447     1.02070
C152        C  0.15874609  0.88770910  0.99802720     1.00790
C153        C  0.02725220  0.15914047  0.13393305     1.00180
C154        C  0.02502161  0.16003027  0.86424139     1.02190
C155        C  0.02746735  0.89003152  0.86409814     1.01110
C156        C  0.02175187  0.88829907  0.13324643     0.99960
C157        C  0.15933400  0.01914440  0.13508000     1.00010
C158        C  0.16081764  0.02299841  0.86552794     1.02630
H159        H  0.09922233  0.94737823  0.07484277     0.30000
O160        O  0.07771651  0.96987366  0.05304856    -1.05260
H161        H  0.10213792  0.09873813  0.92376951     0.32050
O162        O  0.07990306  0.07707416  0.94576670    -1.07820
C163        C  0.97996535  0.80356504  0.24836952    -0.09410
C164        C  0.02426324  0.77120768  0.25471052     0.06790
C165        C  0.06711681  0.77643086  0.21980383    -0.03180
C166        C  0.06543838  0.81437454  0.17984255    -0.07630
C167        C  0.02136789  0.84720400  0.17404762     0.05900
C168        C  0.97804526  0.84091980  0.20802589    -0.02650
Br169      Br  0.91398228  0.87940816  0.19811828    -0.02350
H170        H  0.94632306  0.79894646  0.27424783     0.09810
H171        H  0.09892743  0.81884500  0.15374111     0.07830
Br172      Br  0.12936967  0.73411003  0.22648781    -0.02780
C173        C  0.05576281  0.55771388  0.28702227    -0.09410
C174        C  0.01403329  0.58294729  0.31312609     0.06790
C175        C  0.97222260  0.55238708  0.33317482    -0.03180
C176        C  0.97468122  0.49754719  0.33056684    -0.07630
C177        C  0.01851182  0.47200978  0.30853791     0.05900
C178        C  0.05843453  0.50255392  0.28485113    -0.02650
Br179      Br  0.12012094  0.47132716  0.25461271    -0.02350
H180        H  0.08808939  0.58084013  0.27142078     0.09810
H181        H  0.94348892  0.47453458  0.34850572     0.07830
Br182      Br  0.91170565  0.58337789  0.36632674    -0.02780
C183        C  0.06154346  0.24376418  0.16872936    -0.09410
C184        C  0.02749605  0.20061876  0.17468545     0.06790
C185        C  0.99445785  0.19824910  0.21925145    -0.03180
C186        C  0.99601642  0.23860834  0.25659784    -0.07630
C187        C  0.03063119  0.28156589  0.25119485     0.05900
C188        C  0.06396676  0.28357752  0.20666256    -0.02650
Br189      Br  0.11669585  0.33683511  0.19696778    -0.02350
H190        H  0.08760637  0.24576021  0.13500193     0.09810
H191        H  0.96951958  0.23659212  0.28996271     0.07830
Br192      Br  0.94430081  0.14258359  0.23004886    -0.02780
C193        C  0.06896923  0.73056208  0.47246444    -0.09410
C194        C  0.02086671  0.72475017  0.44613903     0.06790
C195        C  0.97377574  0.72244061  0.47536409    -0.03180
C196        C  0.97563386  0.72136581  0.53025757    -0.07630
C197        C  0.02406503  0.72295783  0.55649214     0.05900
C198        C  0.07079390  0.72979411  0.52742821    -0.02650
Br199      Br  0.13812983  0.73307261  0.56126439    -0.02350
H200        H  0.10541181  0.73199773  0.45027593     0.09810
H201        H  0.93951898  0.71604142  0.55239938     0.07830
Br202      Br  0.90656775  0.71648728  0.44167704    -0.02780
C203        C  0.07542823  0.79050389  0.76442519    -0.09410
C204        C  0.02757396  0.76929624  0.74690982     0.06790
C205        C  0.97985724  0.78869065  0.76739083    -0.03180
C206        C  0.98054098  0.82824316  0.80556524    -0.07630
C207        C  0.02831570  0.84910934  0.82343601     0.05900
C208        C  0.07604487  0.83052308  0.80224208    -0.02650
Br209      Br  0.14255056  0.85978779  0.82280054    -0.02350
H210        H  0.11226012  0.77642346  0.74806634     0.09810
H211        H  0.94366019  0.84312136  0.82100730     0.07830
Br212      Br  0.91304756  0.76283563  0.74367859    -0.02780
C213        C  0.97509252  0.34598018  0.52441293    -0.09410
C214        C  0.01957196  0.32933136  0.55233823     0.06790
C215        C  0.06329512  0.30922377  0.52464680    -0.03180
C216        C  0.06368046  0.31040025  0.46952486    -0.07630
C217        C  0.02084544  0.33151193  0.44180543     0.05900
C218        C  0.97532516  0.34698459  0.46962772    -0.02650
Br219      Br  0.91369803  0.37315105  0.43457426    -0.02350
H220        H  0.94120351  0.36127015  0.54540806     0.09810
H221        H  0.09883190  0.29838247  0.44851092     0.07830
Br222      Br  0.12526354  0.28535363  0.56042960    -0.02780
C223        C  0.99641717  0.49617188  0.71262868    -0.09410
C224        C  0.03676855  0.46887286  0.68638188     0.06790
C225        C  0.07914803  0.49763181  0.66479226    -0.03180
C226        C  0.07842897  0.55264218  0.66577965    -0.07630
C227        C  0.03609311  0.58015471  0.68827968     0.05900
C228        C  0.99575272  0.55150506  0.71365369    -0.02650
Br229      Br  0.93615749  0.58584800  0.74495948    -0.02350
H230        H  0.96357981  0.47455496  0.72927258     0.09810
H231        H  0.10997023  0.57418248  0.64666808     0.07830
Br232      Br  0.13804240  0.46364507  0.63156925    -0.02780
C233        C  0.06048052  0.27992031  0.78199531    -0.09410
C234        C  0.02093839  0.27922480  0.74357142     0.06790
C235        C  0.98225639  0.23920024  0.74565830    -0.03180
C236        C  0.98460636  0.20040028  0.78484094    -0.07630
C237        C  0.02422305  0.20128672  0.82316868     0.05900
C238        C  0.06227654  0.24163925  0.82149728    -0.02650
Br239      Br  0.11980300  0.24434807  0.86974678    -0.02350
H240        H  0.09085920  0.30987294  0.78067690     0.09810
H241        H  0.95465133  0.17001220  0.78608292     0.07830
Br242      Br  0.92336232  0.23740518  0.69851204    -0.02780
C243        C  0.85620177  0.00651179  0.22110570    -0.09410
C244        C  0.84641991  0.03213599  0.17341837     0.06790
C245        C  0.79747408  0.05801065  0.16662533    -0.03180
C246        C  0.76030862  0.05828262  0.20761356    -0.07630
C247        C  0.76999703  0.03170910  0.25513815     0.05900
C248        C  0.81824010  0.00403524  0.26061911    -0.02650
Br249      Br  0.83401132  0.95724158  0.31812911    -0.02350
H250        H  0.89328875  0.98647946  0.22720087     0.09810
H251        H  0.72392591  0.07989202  0.20236168     0.07830
Br252      Br  0.77974683  0.09617491  0.10388219    -0.02780
C253        C  0.49526811  0.02150776  0.37167464    -0.09410
C254        C  0.46747238  0.02442016  0.32395440     0.06790
C255        C  0.49841203  0.02484152  0.27718037    -0.03180
C256        C  0.55390594  0.01984266  0.28007432    -0.07630
C257        C  0.58084698  0.02168615  0.32862355     0.05900
C258        C  0.54928380  0.02832074  0.37425600    -0.02650
Br259      Br  0.57198409  0.05953111  0.43970778    -0.02350
H260        H  0.47517390  0.01791523  0.40891419     0.09810
H261        H  0.57565863  0.01712112  0.24368180     0.07830
Br262      Br  0.47040420  0.03728040  0.20831776    -0.02780
C263        C  0.28372198  0.04495896  0.21343949    -0.09410
C264        C  0.27914445  0.00818751  0.25435647     0.06790
C265        C  0.23506906  0.97422759  0.25534068    -0.03180
C266        C  0.19635991  0.97833432  0.21626362    -0.07630
C267        C  0.20066680  0.01592915  0.17590025     0.05900
C268        C  0.24484111  0.04949567  0.17497912    -0.02650
Br269      Br  0.25103423  0.10665437  0.12629309    -0.02350
H270        H  0.31639935  0.07243042  0.21302633     0.09810
H271        H  0.16289007  0.95186505  0.21724382     0.07830
Br272      Br  0.22657401  0.92063806  0.30795699    -0.02780
C273        C  0.34412812  0.98425687  0.52456549    -0.09410
C274        C  0.32632662  0.02671561  0.55487151     0.06790
C275        C  0.30173510  0.06978207  0.52974890    -0.03180
C276        C  0.29996488  0.07185813  0.47457843    -0.07630
C277        C  0.32173121  0.03097440  0.44448297     0.05900
C278        C  0.34202145  0.98604511  0.46998968    -0.02650
Br279      Br  0.37264199  0.92826393  0.43187347    -0.02350
H280        H  0.36270285  0.95078857  0.54345984     0.09810
H281        H  0.28461308  0.10665731  0.45527549     0.07830
Br282      Br  0.27491603  0.12862465  0.56868243    -0.02780
C283        C  0.24423915  0.06378777  0.74929522    -0.09410
C284        C  0.28012558  0.02184580  0.74623983     0.06790
C285        C  0.27650329  0.98022599  0.78288802    -0.03180
C286        C  0.23800803  0.98175693  0.82228610    -0.07630
C287        C  0.20194914  0.02351696  0.82487574     0.05900
C288        C  0.20524347  0.06479126  0.78804627    -0.02650
Br289      Br  0.15895070  0.12448889  0.79040198    -0.02350
H290        H  0.24677109  0.09607796  0.72150819     0.09810
H291        H  0.23523601  0.94951048  0.85010058     0.07830
Br292      Br  0.32018971  0.91863455  0.77855500    -0.02780
C293        C  0.74197969  0.98578845  0.47725465    -0.09410
C294        C  0.72970527  0.03023276  0.44701045     0.06790
C295        C  0.71946802  0.07864457  0.47206716    -0.03180
C296        C  0.71689666  0.08088782  0.52683218    -0.07630
C297        C  0.72517123  0.03546560  0.55697066     0.05900
C298        C  0.74012718  0.98822814  0.53208913    -0.02650
Br299      Br  0.75213383  0.92473028  0.57123956    -0.02350
H300        H  0.74921601  0.94832319  0.45819260     0.09810
H301        H  0.70505467  0.11723691  0.54577157     0.07830
Br302      Br  0.70236436  0.14101935  0.43291262    -0.02780
C303        C  0.49680182  0.97611062  0.65920489    -0.09410
C304        C  0.46913274  0.01563775  0.68619977     0.06790
C305        C  0.49757800  0.05232634  0.71661344    -0.03180
C306        C  0.55284555  0.05146761  0.71594439    -0.07630
C307        C  0.58027121  0.01465113  0.68511774     0.05900
C308        C  0.55173471  0.97532021  0.65843610    -0.02650
Br309      Br  0.58577713  0.92055952  0.61885502    -0.02350
H310        H  0.47544963  0.94700558  0.63655572     0.09810
H311        H  0.57438991  0.08178017  0.73674290     0.07830
Br312      Br  0.46348557  0.10777178  0.75494459    -0.02780
C313        C  0.80375384  0.05610037  0.83182096    -0.09410
C314        C  0.84899533  0.02516182  0.82400641     0.06790
C315        C  0.85336402  0.99489508  0.77775357    -0.03180
C316        C  0.81299129  0.99611136  0.74063942    -0.07630
C317        C  0.76815853  0.02780046  0.74785910     0.05900
C318        C  0.76384041  0.05821462  0.79407340    -0.02650
Br319      Br  0.70690620  0.10655159  0.80625535    -0.02350
H320        H  0.80011457  0.08005721  0.86685815     0.09810
H321        H  0.81668794  0.97199447  0.70572201     0.07830
Br322      Br  0.91208237  0.94930952  0.76357226    -0.02780
C323        C  0.24797623  0.85689124  0.02289345    -0.09410
C324        C  0.19982485  0.84636368  0.99787986     0.06790
C325        C  0.19234190  0.79668493  0.97400426    -0.03180
C326        C  0.23311695  0.75981742  0.97427062    -0.07630
C327        C  0.28108133  0.77014246  0.99964491     0.05900
C328        C  0.28800432  0.81916589  0.02487380    -0.02650
Br329      Br  0.34873836  0.83576791  0.06663139    -0.02350
H330        H  0.25397586  0.89420107  0.04264854     0.09810
H331        H  0.22714592  0.72254023  0.95446220     0.07830
Br332      Br  0.12835878  0.77600278  0.93947805    -0.02780
C333        C  0.31893613  0.49508404  0.97328022    -0.09410
C334        C  0.32814207  0.47014808  0.02154695     0.06790
C335        C  0.33373848  0.50057857  0.06729715    -0.03180
C336        C  0.33466662  0.55557129  0.06355434    -0.07630
C337        C  0.33002238  0.58027634  0.01448794     0.05900
C338        C  0.32009745  0.54989299  0.96944135    -0.02650
Br339      Br  0.31405754  0.58144548  0.90113404    -0.02350
H340        H  0.31518860  0.47179798  0.93781940     0.09810
H341        H  0.34238898  0.57887481  0.09832303     0.07830
Br342      Br  0.34419433  0.46829524  0.13455660    -0.02780
C343        C  0.29600125  0.22693102  0.00340774    -0.09410
C344        C  0.28155903  0.27997790  0.99527229     0.06790
C345        C  0.22843243  0.29028623  0.98136438    -0.03180
C346        C  0.19085376  0.25028841  0.98521737    -0.07630
C347        C  0.20533006  0.19756598  0.99392728     0.05900
C348        C  0.25965347  0.18591498  0.99868794    -0.02650
Br349      Br  0.28919489  0.11614667  0.99462770    -0.02350
H350        H  0.33600119  0.21619662  0.01287248     0.09810
H351        H  0.15003783  0.26047154  0.97851041     0.07830
Br352      Br  0.20439358  0.35439175  0.94863713    -0.02780
C353        C  0.49676470  0.32205747  0.96269025    -0.09410
C354        C  0.47103033  0.33951857  0.00831169     0.06790
C355        C  0.50098902  0.35127887  0.05340169    -0.03180
C356        C  0.55583237  0.34966120  0.05100245    -0.07630
C357        C  0.58168161  0.33598571  0.00433230     0.05900
C358        C  0.55189742  0.32039286  0.96040143    -0.02650
Br359      Br  0.58475538  0.30180159  0.89513355    -0.02350
H360        H  0.47412275  0.31284342  0.92787301     0.09810
H361        H  0.57851835  0.36160055  0.08497708     0.07830
Br362      Br  0.46900547  0.37147344  0.11881884    -0.02780
C363        C  0.80850807  0.19621072  0.96428657    -0.09410
C364        C  0.85147599  0.20155616  0.99841006     0.06790
C365        C  0.85408619  0.24577096  0.03176252    -0.03180
C366        C  0.81405740  0.28355082  0.03039984    -0.07630
C367        C  0.77124037  0.27864708  0.99584014     0.05900
C368        C  0.76896083  0.23447699  0.96218762    -0.02650
Br369      Br  0.71555932  0.22581738  0.90964347    -0.02350
H370        H  0.80641580  0.16269996  0.93801910     0.09810
H371        H  0.81615923  0.31681083  0.05695502     0.07830
Br372      Br  0.90956799  0.25532769  0.08206404    -0.02780
C373        C  0.55424181  0.68783144  0.94398152    -0.09410
C374        C  0.58005410  0.71375856  0.98534416     0.06790
C375        C  0.54980745  0.74264472  0.02191462    -0.03180
C376        C  0.49481211  0.74186352  0.01881716    -0.07630
C377        C  0.46925932  0.71168660  0.98049723     0.05900
C378        C  0.49935088  0.68618468  0.94159547    -0.02650
Br379      Br  0.46733803  0.64611813  0.88628510    -0.02350
H380        H  0.57692438  0.66598634  0.91519837     0.09810
H381        H  0.47189065  0.76126273  0.04912043     0.07830
Br382      Br  0.58024957  0.77745947  0.08119974    -0.02780
C383        C  0.73195601  0.49560328  0.04205385    -0.09410
C384        C  0.72163766  0.46978531  0.99445463     0.06790
C385        C  0.71461663  0.49952786  0.94839225    -0.03180
C386        C  0.71421504  0.55444430  0.95102845    -0.07630
C387        C  0.72049218  0.58033717  0.99926200     0.05900
C388        C  0.73137221  0.55072601  0.04473762    -0.02650
Br389      Br  0.73952724  0.58363189  0.11200169    -0.02350
H390        H  0.73667620  0.47287210  0.07779158     0.09810
H391        H  0.70556133  0.57699522  0.91591270     0.07830
Br392      Br  0.70054972  0.46657999  0.88209493    -0.02780
C393        C  0.81278562  0.76543713  0.97068899    -0.09410
C394        C  0.76926016  0.77127135  0.00431646     0.06790
C395        C  0.76623291  0.81638376  0.03661299    -0.03180
C396        C  0.80532092  0.85507111  0.03351748    -0.07630
C397        C  0.84887375  0.84894718  0.00010415     0.05900
C398        C  0.85267519  0.80322413  0.96884006    -0.02650
Br399      Br  0.91007533  0.79056308  0.92134651    -0.02350
H400        H  0.81570150  0.73127323  0.94535765     0.09810
H401        H  0.80260327  0.88933737  0.05875106     0.07830
Br402      Br  0.71284716  0.82553520  0.08910576    -0.02780
loop_ 
_geom_bond_atom_site_label_1 
_geom_bond_atom_site_label_2 
_geom_bond_distance 
_geom_bond_site_symmetry_2 
_ccdc_geom_bond_type 
C1            C2   1.410       .  A
C1            C6   1.410   1_554  A
C1          C394   1.484       .  S
C2            C3   1.398       .  A
C2            H7   1.084       .  S
C3            C4   1.396   1_554  A
C3          C387   1.473   1_554  S
C4            C5   1.400       .  A
C4            H8   1.085       .  S
C5            C6   1.404       .  A
C5          C374   1.482       .  S
C6            H9   1.083       .  S
C10          C11   1.410       .  A
C10          C15   1.410       .  A
C10         C367   1.484       .  S
C11          C12   1.399       .  A
C11          H16   1.084       .  S
C12          C13   1.396       .  A
C12         C384   1.471       .  S
C13          C14   1.397       .  A
C13          H17   1.085       .  S
C14          C15   1.401       .  A
C14         C357   1.473   1_556  S
C15          H18   1.083   1_556  S
C19          C20   1.419   1_554  A
C19          C24   1.412       .  A
C19         C344   1.504   1_554  S
C20          C21   1.402   1_556  A
C20          H25   1.080       .  S
C21          C22   1.395       .  A
C21         C354   1.477       .  S
C22          C23   1.392       .  A
C22          H26   1.085       .  S
C23          C24   1.396       .  A
C23         C334   1.468       .  S
C24          H27   1.078       .  S
C28          C29   1.409   1_554  A
C28          C33   1.408       .  A
C28         C327   1.483   1_554  S
C29          C30   1.401       .  A
C29          H34   1.083       .  S
C30          C31   1.399       .  A
C30         C377   1.475       .  S
C31          C32   1.396   1_556  A
C31          H35   1.085       .  S
C32          C33   1.396       .  A
C32         C337   1.467       .  S
C33          H36   1.084       .  S
C37          C38   1.411       .  A
C37          C42   1.407       .  A
C37         C317   1.484       .  S
C38          C39   1.404       .  A
C38          H43   1.083       .  S
C39          C40   1.401       .  A
C39         C307   1.481       .  S
C40          C41   1.396       .  A
C40          H44   1.085       .  S
C41          C42   1.396       .  A
C41         C297   1.470       .  S
C42          H45   1.084       .  S
C46          C47   1.408       .  A
C46          C51   1.407       .  A
C46         C284   1.478       .  S
C47          C48   1.403       .  A
C47          H52   1.083       .  S
C48          C49   1.401       .  A
C48         C304   1.483       .  S
C49          C50   1.401       .  A
C49          H53   1.085       .  S
C50          C51   1.399       .  A
C50         C274   1.479       .  S
C51          H54   1.084       .  S
C55          C56   1.405       .  A
C55          C60   1.417       .  A
C55         C264   1.484       .  S
C56          C57   1.392       .  A
C56          H61   1.083       .  S
C57          C58   1.393       .  A
C57         C277   1.475       .  S
C58          C59   1.414       .  A
C58          H62   1.081       .  S
C59          C60   1.416       .  A
C59         C254   1.521       .  S
C60          H63   1.076   1_545  S
C64          C65   1.405       .  A
C64          C69   1.422       .  A
C64         C247   1.494       .  S
C65          C66   1.390       .  A
C65          H70   1.083       .  S
C66          C67   1.391       .  A
C66         C294   1.469       .  S
C67          C68   1.404       .  A
C67          H71   1.079   1_545  S
C68          C69   1.421       .  A
C68         C257   1.516       .  S
C69          H72   1.079       .  S
C73          C74   1.413       .  A
C73          C78   1.409       .  A
C73         C234   1.487       .  S
C74          C75   1.405       .  A
C74          H79   1.084       .  S
C75          C76   1.400       .  A
C75         C224   1.483       .  S
C76          C77   1.398       .  A
C76          H80   1.085       .  S
C77          C78   1.400       .  A
C77         C214   1.476       .  S
C78          H81   1.083       .  S
C82          C83   1.404       .  A
C82          C87   1.408       .  A
C82         C204   1.473       .  S
C83          C84   1.398       .  A
C83          H88   1.084       .  S
C84          C85   1.399       .  A
C84         C197   1.473       .  S
C85          C86   1.402       .  A
C85          H89   1.085       .  S
C86          C87   1.405       .  A
C86         C227   1.483       .  S
C87          H90   1.084       .  S
C91          C92   1.412       .  A
C91          C96   1.413       .  A
C91         C187   1.490       .  S
C92          C93   1.400       .  A
C92          H97   1.084       .  S
C93          C94   1.397       .  A
C93         C217   1.478       .  S
C94          C95   1.398       .  A
C94          H98   1.085       .  S
C95          C96   1.405       .  A
C95         C177   1.481       .  S
C96          H99   1.083       .  S
C100        C101   1.407       .  A
C100        C105   1.407       .  A
C100        C164   1.476       .  S
C101        C102   1.401       .  A
C101        H106   1.084       .  S
C102        C103   1.399       .  A
C102        C194   1.474       .  S
C103        C104   1.401       .  A
C103        H107   1.085       .  S
C104        C105   1.402       .  A
C104        C174   1.479       .  S
C105        H108   1.084       .  S
O109        C120   1.288       .  A
O109       Eu145   2.443   1_655  S
O110        C121   1.291       .  A
O110       Eu144   2.457   1_655  S
O111        C122   1.289       .  A
O111       Eu117   2.451   1_554  S
O112        C123   1.290       .  A
O112       Eu117   2.450       .  S
O113        C123   1.291       .  A
O113       Eu147   2.458   1_655  S
O114        C122   1.294       .  A
O114       Eu146   2.469   1_655  S
O115        C121   1.290       .  A
O115       Eu117   2.451       .  S
O116        C120   1.292   1_554  A
O116       Eu117   2.463   1_564  S
Eu117       O127   2.352   1_545  S
Eu117       O119   2.352   1_546  S
Eu117       O118   2.352       .  S
Eu117       O125   2.353   1_556  S
O118       Eu147   2.348   1_655  S
O118       Eu144   2.353   1_655  S
O119       Eu145   2.355   1_654  S
O119       Eu146   2.353   1_665  S
C120        C397   1.475   1_556  S
C121        C364   1.474       .  S
C122        C244   1.486       .  S
C123        C314   1.477       .  S
H124        O125   0.966       .  S
O125       Eu146   2.351   1_655  S
O125       Eu144   2.353   1_654  S
H126        O127   0.966       .  S
O127       Eu145   2.353   1_655  S
O127       Eu147   2.354   1_665  S
O128        C151   1.293       .  A
O128       Eu144   2.461       .  S
O129        C152   1.288       .  A
O129       Eu145   2.449       .  S
O130        C153   1.292       .  A
O130       Eu146   2.461       .  S
O131        C154   1.292       .  A
O131       Eu147   2.464       .  S
O132        C155   1.290       .  A
O132       Eu147   2.458   1_565  S
O133        C156   1.292       .  A
O133       Eu146   2.462   1_565  S
O134        C157   1.292       .  A
O134       Eu148   2.464   1_554  S
O135        C158   1.290       .  A
O135       Eu148   2.456       .  S
O136        C157   1.293       .  A
O136       Eu146   2.469       .  S
O137        C158   1.290       .  A
O137       Eu147   2.455       .  S
O138        C153   1.292       .  A
O138       Eu144   2.459   1_554  S
O139        C156   1.290       .  A
O139       Eu145   2.459   1_554  S
O140        C155   1.290       .  A
O140       Eu145   2.460       .  S
O141        C154   1.292       .  A
O141       Eu144   2.465       .  S
O142        C151   1.287       .  A
O142       Eu148   2.447       .  S
O143        C152   1.290       .  A
O143       Eu148   2.450   1_565  S
Eu144       O162   2.347       .  S
Eu144       O150   2.356   1_556  S
Eu145       O149   2.347       .  S
Eu145       O160   2.347   1_556  S
Eu146       O160   2.353   1_545  S
Eu146       O150   2.359       .  S
Eu147       O149   2.354   1_545  S
Eu147       O162   2.352       .  S
Eu148       O149   2.349   1_545  S
Eu148       O160   2.348   1_546  S
Eu148       O162   2.355       .  S
Eu148       O150   2.353   1_556  S
C151        C347   1.492       .  S
C152        C324   1.479       .  S
C153        C184   1.479       .  S
C154        C237   1.479       .  S
C155        C207   1.467       .  S
C156        C167   1.471       .  S
C157        C267   1.481       .  S
C158        C287   1.468       .  S
H159        O160   0.966       .  S
H161        O162   0.966       .  S
C163        C164   1.402   1_655  A
C163        C168   1.398       .  A
C163        H170   1.084       .  S
C164        C165   1.409       .  A
C165        C166   1.401       .  A
C165       Br172   1.918       .  S
C166        C167   1.403       .  A
C166        H171   1.084       .  S
C167        C168   1.407   1_455  A
C168       Br169   1.914       .  S
C173        C174   1.404       .  A
C173        C178   1.403       .  A
C173        H180   1.084       .  S
C174        C175   1.409   1_455  A
C175        C176   1.395       .  A
C175       Br182   1.920       .  S
C176        C177   1.404   1_655  A
C176        H181   1.084       .  S
C177        C178   1.410       .  A
C178       Br179   1.915       .  S
C183        C184   1.403       .  A
C183        C188   1.400       .  A
C183        H190   1.084       .  S
C184        C185   1.410   1_455  A
C185        C186   1.399       .  A
C185       Br192   1.921       .  S
C186        C187   1.407   1_655  A
C186        H191   1.083       .  S
C187        C188   1.414       .  A
C188       Br189   1.918       .  S
C193        C194   1.402       .  A
C193        C198   1.400       .  A
C193        H200   1.083       .  S
C194        C195   1.408   1_455  A
C195        C196   1.398       .  A
C195       Br202   1.918       .  S
C196        C197   1.401   1_655  A
C196        H201   1.084       .  S
C197        C198   1.407       .  A
C198       Br199   1.918       .  S
C203        C204   1.403       .  A
C203        C208   1.400       .  A
C203        H210   1.083       .  S
C204        C205   1.407   1_455  A
C205        C206   1.398       .  A
C205       Br212   1.918       .  S
C206        C207   1.401   1_655  A
C206        H211   1.083       .  S
C207        C208   1.407       .  A
C208       Br209   1.919       .  S
C213        C214   1.401   1_655  A
C213        C218   1.395       .  A
C213        H220   1.084       .  S
C214        C215   1.409       .  A
C215        C216   1.403       .  A
C215       Br222   1.918       .  S
C216        C217   1.404       .  A
C216        H221   1.083       .  S
C217        C218   1.410   1_455  A
C218       Br219   1.921       .  S
C223        C224   1.405   1_655  A
C223        C228   1.405       .  A
C223        H230   1.083       .  S
C224        C225   1.410       .  A
C225        C226   1.397       .  A
C225       Br232   1.921       .  S
C226        C227   1.403       .  A
C226        H231   1.084       .  S
C227        C228   1.411   1_455  A
C228       Br229   1.918       .  S
C233        C234   1.403       .  A
C233        C238   1.398       .  A
C233        H240   1.084       .  S
C234        C235   1.414   1_455  A
C235        C236   1.402       .  A
C235       Br242   1.920       .  S
C236        C237   1.403   1_655  A
C236        H241   1.084       .  S
C237        C238   1.409       .  A
C238       Br239   1.912       .  S
C243        C244   1.399       .  A
C243        C248   1.393       .  A
C243        H250   1.081   1_545  S
C244        C245   1.416       .  A
C245        C246   1.405       .  A
C245       Br252   1.921       .  S
C246        C247   1.406       .  A
C246        H251   1.083       .  S
C247        C248   1.419       .  A
C248       Br249   1.927   1_545  S
C253        C254   1.408       .  A
C253        C258   1.384       .  A
C253        H260   1.079       .  S
C254        C255   1.425       .  A
C255        C256   1.417       .  A
C255       Br262   1.919       .  S
C256        C257   1.415       .  A
C256        H261   1.080       .  S
C257        C258   1.420       .  A
C258       Br259   1.935       .  S
C263        C264   1.402       .  A
C263        C268   1.397       .  A
C263        H270   1.084       .  S
C264        C265   1.413   1_545  A
C265        C266   1.404       .  A
C265       Br272   1.920       .  S
C266        C267   1.405   1_565  A
C266        H271   1.084       .  S
C267        C268   1.409       .  A
C268       Br269   1.913       .  S
C273        C274   1.400   1_565  A
C273        C278   1.391       .  A
C273        H280   1.084       .  S
C274        C275   1.412       .  A
C275        C276   1.406       .  A
C275       Br282   1.917       .  S
C276        C277   1.403       .  A
C276        H281   1.083       .  S
C277        C278   1.410   1_545  A
C278       Br279   1.922       .  S
C283        C284   1.403       .  A
C283        C288   1.396       .  A
C283        H290   1.084       .  S
C284        C285   1.411   1_545  A
C285        C286   1.399       .  A
C285       Br292   1.920       .  S
C286        C287   1.402   1_565  A
C286        H291   1.084       .  S
C287        C288   1.407       .  A
C288       Br289   1.918       .  S
C293        C294   1.400   1_565  A
C293        C298   1.398       .  A
C293        H300   1.083       .  S
C294        C295   1.409       .  A
C295        C296   1.397       .  A
C295       Br302   1.920       .  S
C296        C297   1.400       .  A
C296        H301   1.084       .  S
C297        C298   1.408   1_545  A
C298       Br299   1.918       .  S
C303        C304   1.404   1_565  A
C303        C308   1.395       .  A
C303        H310   1.084       .  S
C304        C305   1.412       .  A
C305        C306   1.403       .  A
C305       Br312   1.918       .  S
C306        C307   1.404       .  A
C306        H311   1.084       .  S
C307        C308   1.410   1_545  A
C308       Br309   1.921       .  S
C313        C314   1.405       .  A
C313        C318   1.399       .  A
C313        H320   1.084       .  S
C314        C315   1.411   1_545  A
C315        C316   1.396       .  A
C315       Br322   1.921       .  S
C316        C317   1.405   1_565  A
C316        H321   1.084       .  S
C317        C318   1.412       .  A
C318       Br319   1.920       .  S
C323        C324   1.406   1_554  A
C323        C328   1.397       .  A
C323        H330   1.084       .  S
C324        C325   1.413       .  A
C325        C326   1.395       .  A
C325       Br332   1.922       .  S
C326        C327   1.405       .  A
C326        H331   1.083       .  S
C327        C328   1.412   1_556  A
C328       Br329   1.922       .  S
C333        C334   1.401   1_556  A
C333        C338   1.395       .  A
C333        H340   1.084       .  S
C334        C335   1.406       .  A
C335        C336   1.399       .  A
C335       Br342   1.916       .  S
C336        C337   1.402       .  A
C336        H341   1.083       .  S
C337        C338   1.406   1_554  A
C338       Br339   1.920       .  S
C343        C344   1.410   1_554  A
C343        C348   1.397   1_554  A
C343        H350   1.079       .  S
C344        C345   1.420       .  A
C345        C346   1.397       .  A
C345       Br352   1.927       .  S
C346        C347   1.405       .  A
C346        H351   1.082       .  S
C347        C348   1.416       .  A
C348       Br349   1.926       .  S
C353        C354   1.403   1_556  A
C353        C358   1.401       .  A
C353        H360   1.083       .  S
C354        C355   1.411       .  A
C355        C356   1.394       .  A
C355       Br362   1.921       .  S
C356        C357   1.400       .  A
C356        H361   1.084       .  S
C357        C358   1.409   1_554  A
C358       Br359   1.917       .  S
C363        C364   1.403       .  A
C363        C368   1.398       .  A
C363        H370   1.084       .  S
C364        C365   1.410   1_556  A
C365        C366   1.397       .  A
C365       Br372   1.922       .  S
C366        C367   1.406   1_554  A
C366        H371   1.083       .  S
C367        C368   1.413       .  A
C368       Br369   1.920       .  S
C373        C374   1.406       .  A
C373        C378   1.396       .  A
C373        H380   1.084       .  S
C374        C375   1.411   1_556  A
C375        C376   1.399       .  A
C375       Br382   1.914       .  S
C376        C377   1.401   1_554  A
C376        H381   1.084       .  S
C377        C378   1.407       .  A
C378       Br379   1.920       .  S
C383        C384   1.403   1_554  A
C383        C388   1.401       .  A
C383        H390   1.083       .  S
C384        C385   1.405       .  A
C385        C386   1.396       .  A
C385       Br392   1.919       .  S
C386        C387   1.403       .  A
C386        H391   1.084       .  S
C387        C388   1.407   1_556  A
C388       Br389   1.918       .  S
C393        C394   1.404   1_556  A
C393        C398   1.396       .  A
C393        H400   1.084       .  S
C394        C395   1.412       .  A
C395        C396   1.398       .  A
C395       Br402   1.915       .  S
C396        C397   1.402       .  A
C396        H401   1.084       .  S
C397        C398   1.411   1_554  A
C398       Br399   1.919       .  S
