geometry optimzed in LAMMPS
_audit_creation_date              2020-12-01 
_audit_creation_method            'lammps2cif' 
_symmetry_space_group_name_H-M    'P1' 
_symmetry_Int_Tables_number       1 
_symmetry_cell_setting            triclinic 
loop_ 
_symmetry_equiv_pos_as_xyz 
  x,y,z 
_cell_length_a                    46.04901425 
_cell_length_b                    45.918182165809725 
_cell_length_c                    45.673929099088376 
_cell_angle_alpha                 90.00255101762819 
_cell_angle_beta                  89.95832883689513 
_cell_angle_gamma                 89.85243779867754 
loop_ 
_atom_site_label 
_atom_site_type_symbol 
_atom_site_fract_x 
_atom_site_fract_y 
_atom_site_fract_z 
_atom_site_charge 
C1          C  0.38823731  0.61047475  0.61319654    -0.01300
N2          N  0.41789953  0.55994734  0.55842116    -0.04900
N3          N  0.39679747  0.56695791  0.57708611    -0.57100
N4          N  0.43722055  0.58078234  0.49043812    -0.04600
N5          N  0.42908206  0.60109188  0.47121459    -0.59200
N6          N  0.41749599  0.55995394  0.49123767    -0.04200
N7          N  0.39594832  0.56595141  0.47299116    -0.57000
N8          N  0.43789314  0.58053643  0.55826549    -0.03900
N9          N  0.43058125  0.60150257  0.57689047    -0.59500
C10         C  0.40482192  0.59301817  0.58879372     0.97200
C11         C  0.40316846  0.59155915  0.46020006     0.97000
N12         N  0.52964128  0.56147388  0.49095122    -0.05100
N13         N  0.55123667  0.56897891  0.47335438    -0.57600
N14         N  0.51010159  0.58087641  0.55829586    -0.03200
N15         N  0.51847586  0.60178913  0.57655820    -0.58900
N16         N  0.52992786  0.56004899  0.55806453    -0.05100
N17         N  0.55160818  0.56653549  0.57607356    -0.57900
N18         N  0.50932278  0.58179148  0.49075920    -0.02900
N19         N  0.51710938  0.60330313  0.47296083    -0.59000
Mn20       Mn  0.47358763  0.58141456  0.52440938     1.18400
C21         C  0.54325846  0.59496053  0.46169909     0.99300
C22         C  0.54436279  0.59258142  0.58798272     1.00000
N23         N  0.41924600  0.48927277  0.48963298    -0.05200
N24         N  0.39813254  0.48236779  0.47116816    -0.61500
N25         N  0.43964539  0.46697597  0.55566012    -0.04000
N26         N  0.43230219  0.44484845  0.57279618    -0.62100
N27         N  0.41997867  0.48783547  0.55746722    -0.04700
N28         N  0.39959760  0.48022127  0.57646261    -0.61700
N29         N  0.43969845  0.46907715  0.48885783    -0.03600
N30         N  0.43241865  0.44816848  0.47018494    -0.62400
Mn31       Mn  0.41844223  0.52421340  0.52440852     1.10700
C32         C  0.40681759  0.45705439  0.45833498     1.00600
C33         C  0.40753266  0.45337692  0.58648648     1.00600
N34         N  0.52945060  0.48971905  0.55733810    -0.04700
N35         N  0.54960899  0.48399532  0.57719604    -0.60100
N36         N  0.51056621  0.47023944  0.48846194    -0.04000
N37         N  0.51766206  0.45078704  0.46811920    -0.56800
N38         N  0.53008162  0.49117470  0.48911468    -0.05300
N39         N  0.55045116  0.48630049  0.46917188    -0.59600
N40         N  0.51022758  0.46848128  0.55659068    -0.04300
N41         N  0.51744409  0.44787452  0.57576496    -0.56800
Mn42       Mn  0.52987232  0.52545797  0.52389153     1.20200
Mn43       Mn  0.47513537  0.46828872  0.52231195     1.10100
Cl44       Cl  0.47419258  0.52494069  0.52381848    -0.84800
C45         C  0.54187296  0.45801860  0.58909190     0.97600
C46         C  0.54263222  0.46100990  0.45588757     0.97400
C47         C  0.56268135  0.43972387  0.60842183    -0.01300
C48         C  0.38565166  0.43686756  0.44176124    -0.01300
C49         C  0.56333387  0.61403907  0.44204984    -0.01300
C50         C  0.38323414  0.60824376  0.43806671    -0.01300
C51         C  0.56120125  0.44538009  0.43190166    -0.01300
C52         C  0.38824019  0.43461238  0.60743746    -0.01300
C53         C  0.56387194  0.61168258  0.60836370    -0.01300
C54         C  0.23784044  0.24977872  0.99697863     0.03500
C55         C  0.24547728  0.25414621  0.02663212     0.03400
C56         C  0.23337458  0.27740806  0.04235803    -0.17100
C57         C  0.21247672  0.29547286  0.02926277     0.03500
C58         C  0.20185287  0.28858065  0.00085216     0.03400
C59         C  0.21559438  0.26662059  0.98436949    -0.17100
H60         H  0.20885495  0.26248798  0.96202868     0.05500
H61         H  0.24011314  0.28136181  0.06473089     0.05500
C62         C  0.22053557  0.04521380  0.30584185     0.03500
C63         C  0.22570078  0.01559487  0.31300823     0.03400
C64         C  0.24612104  0.99947027  0.29661720    -0.17100
C65         C  0.26285534  0.01325693  0.27485938     0.03500
C66         C  0.26018894  0.04368922  0.27074367     0.03400
C67         C  0.23856194  0.05936826  0.28562784    -0.17100
H68         H  0.23518417  0.08222892  0.28080668     0.05500
H69         H  0.24834083  0.97624927  0.30016722     0.05500
C70         C  0.00069142  0.26264585  0.29585226     0.03500
C71         C  0.97178264  0.25428944  0.28944908     0.03400
C72         C  0.95611526  0.26900513  0.26756083    -0.17100
C73         C  0.96918843  0.29159964  0.25158512     0.03500
C74         C  0.99843045  0.29922501  0.25726791     0.03400
C75         C  0.01398462  0.28482269  0.27946429    -0.17100
H76         H  0.03622470  0.29092716  0.28403794     0.05500
H77         H  0.93385036  0.26294895  0.26303486     0.05500
C78         C  0.45711072  0.30721913  0.27706464     0.03500
C79         C  0.48722691  0.31296752  0.27530501     0.03400
C80         C  0.50478236  0.29743727  0.25554995    -0.17100
C81         C  0.49244903  0.27678330  0.23670901     0.03500
C82         C  0.46205593  0.27217963  0.23719899     0.03400
C83         C  0.44463056  0.28704428  0.25770157    -0.17100
H84         H  0.42154084  0.28274312  0.25872826     0.05500
H85         H  0.52802493  0.30105300  0.25521881     0.05500
C86         C  0.25940461  0.27688841  0.54535807     0.03500
C87         C  0.25020984  0.28990990  0.51865106     0.03400
C88         C  0.22774618  0.27674428  0.50251100    -0.17100
C89         C  0.21169491  0.25385197  0.51489365     0.03500
C90         C  0.21683552  0.24578970  0.54424957     0.03400
C91         C  0.24158910  0.25600022  0.55873317    -0.17100
H92         H  0.24696423  0.24757399  0.58021746     0.05500
H93         H  0.22256223  0.28446305  0.48071211     0.05500
C94         C  0.26169411  0.50143645  0.27382626     0.03500
C95         C  0.24956729  0.52834949  0.28369500     0.03400
C96         C  0.22697720  0.54140851  0.26745065    -0.17100
C97         C  0.21516834  0.52725578  0.24288277     0.03500
C98         C  0.22574055  0.49953575  0.23467549     0.03400
C99         C  0.24902099  0.48698168  0.24989481    -0.17100
H100        H  0.25726827  0.46591750  0.24306409     0.05500
H101        H  0.21846009  0.56244732  0.27402889     0.05500
C102        C  0.24202788  0.79549616  0.99692467     0.03500
C103        C  0.24662939  0.79145325  0.02745897     0.03400
C104        C  0.22910981  0.77161130  0.04282423    -0.17100
C105        C  0.20892193  0.75430715  0.02768471     0.03500
C106        C  0.20720709  0.75576436  0.99680063     0.03400
C107        C  0.22325012  0.77684089  0.98164324    -0.17100
H108        H  0.22089783  0.77892623  0.95813843     0.05500
H109        H  0.23119496  0.76959572  0.06635331     0.05500
C110        C  0.74362979  0.29493853  0.03237264     0.03500
C111        C  0.75616663  0.28270539  0.00687814     0.03400
C112        C  0.74414368  0.25753452  0.99432469    -0.17100
C113        C  0.71947135  0.24446385  0.00680307     0.03500
C114        C  0.70579524  0.25793644  0.03124867     0.03400
C115        C  0.71842283  0.28260654  0.04422118    -0.17100
H116        H  0.70865161  0.29216977  0.06356690     0.05500
H117        H  0.75408047  0.24804073  0.97503233     0.05500
C118        C  0.99164683  0.31269835  0.77122942     0.03500
C119        C  0.96097740  0.31350116  0.76934581     0.03400
C120        C  0.94657931  0.29417242  0.75027795    -0.17100
C121        C  0.96259909  0.27428838  0.73316261     0.03500
C122        C  0.99330856  0.27423760  0.73485650     0.03400
C123        C  0.00755078  0.29335689  0.75381843    -0.17100
H124        H  0.03095920  0.29221544  0.75604214     0.05500
H125        H  0.92307502  0.29378899  0.74968365     0.05500
C126        C  0.70916622  0.52159243  0.29546320     0.03500
C127        C  0.70314553  0.55110495  0.28873900     0.03400
C128        C  0.71926246  0.56538332  0.26698629    -0.17100
C129        C  0.74101500  0.55033381  0.25157422     0.03500
C130        C  0.74626747  0.52050651  0.25741898     0.03400
C131        C  0.73052461  0.50639909  0.27960228    -0.17100
H132        H  0.73477033  0.48368188  0.28440365     0.05500
H133        H  0.71500859  0.58810921  0.26218175     0.05500
C134        C  0.22870043  0.50213588  0.73770399     0.03500
C135        C  0.23181146  0.53252757  0.74213138     0.03400
C136        C  0.21195011  0.54748504  0.75989719    -0.17100
C137        C  0.19045276  0.53209940  0.77510375     0.03500
C138        C  0.18988990  0.50131621  0.77386078     0.03400
C139        C  0.20854095  0.48648484  0.75455948    -0.17100
H140        H  0.20759068  0.46296449  0.75291548     0.05500
H141        H  0.21368467  0.57086920  0.76249295     0.05500
C142        C  0.88703444  0.60314353  0.93106065    -0.01300
N143        N  0.02931135  0.56041617  0.98598126    -0.04900
N144        N  0.04950782  0.56704984  0.96641391    -0.57100
N145        N  0.01109017  0.58142037  0.05379525    -0.04600
N146        N  0.01843209  0.60206069  0.07278772    -0.59200
N147        N  0.03109261  0.56079135  0.05374650    -0.04200
N148        N  0.05198963  0.56712034  0.07267891    -0.57000
N149        N  0.00874343  0.58040560  0.98573296    -0.03900
N150        N  0.01467855  0.60063608  0.96581269    -0.59500
C151        C  0.04020356  0.59202312  0.95343514     0.97200
C152        C  0.04383369  0.59279313  0.08505460     0.97000
N153        N  0.91994408  0.56072586  0.05674605    -0.05100
N154        N  0.89953843  0.56854421  0.07579969    -0.57600
N155        N  0.93847915  0.57896991  0.98718594    -0.03200
N156        N  0.93198087  0.59762346  0.96593375    -0.58900
N157        N  0.91804967  0.55900163  0.98908894    -0.05100
N158        N  0.89732975  0.56426054  0.96969146    -0.57900
N159        N  0.94007720  0.58113032  0.05526433    -0.02900
N160        N  0.93343416  0.60292160  0.07311759    -0.59000
Mn161      Mn  0.97454021  0.58098780  0.02050074     1.18400
C162        C  0.90838775  0.59475145  0.08648707     0.99300
C163        C  0.90608844  0.58845835  0.95507434     1.00000
N164        N  0.03189482  0.48997981  0.05424628    -0.05200
N165        N  0.05403928  0.48208052  0.07123248    -0.61500
N166        N  0.00892360  0.46937279  0.98775850    -0.04000
N167        N  0.01560926  0.44812063  0.96924311    -0.62100
N168        N  0.02914451  0.48967182  0.98697366    -0.04700
N169        N  0.04977673  0.48224370  0.96813896    -0.61700
N170        N  0.01140032  0.46995649  0.05508753    -0.03600
N171        N  0.01952920  0.44843426  0.07247922    -0.62400
Mn172      Mn  0.03065882  0.52527738  0.02027768     1.10700
C173        C  0.04596413  0.45615575  0.08306553     1.00600
C174        C  0.04082727  0.45662741  0.95634156     1.00600
N175        N  0.91857238  0.48876275  0.98953538    -0.04700
N176        N  0.89834753  0.48203839  0.96994289    -0.60100
N177        N  0.93982268  0.46925088  0.05802232    -0.04000
N178        N  0.93305340  0.44860144  0.07731182    -0.56800
N179        N  0.91923513  0.48929502  0.05768328    -0.05300
N180        N  0.89827198  0.48223399  0.07635718    -0.59600
N181        N  0.93894075  0.46854572  0.98969638    -0.04300
N182        N  0.93268833  0.44784513  0.97044037    -0.56800
Mn183      Mn  0.91854273  0.52447837  0.02343588     1.20200
Mn184      Mn  0.97473080  0.46898097  0.02284812     1.10100
Cl185      Cl  0.97461251  0.52495120  0.02206734    -0.84800
C186        C  0.90763150  0.45670666  0.95743348     0.97600
C187        C  0.90707075  0.45696065  0.08913456     0.97400
C188        C  0.88800213  0.43791086  0.11035351    -0.01300
C189        C  0.06174991  0.43530993  0.94094442    -0.01300
C190        C  0.05821096  0.61022028  0.93094812    -0.01300
C191        C  0.88773259  0.43624731  0.93945661    -0.01300
C192        C  0.88846565  0.61646995  0.10295599    -0.01300
C193        C  0.73383484  0.53869477  0.72866689     0.03500
C194        C  0.72204316  0.51199221  0.73895098     0.03400
C195        C  0.73635931  0.49649229  0.76122523    -0.17100
C196        C  0.76129371  0.50775329  0.77461023     0.03500
C197        C  0.77194132  0.53539585  0.76608283     0.03400
C198        C  0.75830184  0.55057384  0.74296930    -0.17100
H199        H  0.76636212  0.57176341  0.73650009     0.05500
H200        H  0.72753834  0.47597266  0.76882599     0.05500
C201        C  0.06331964  0.61136449  0.10595927    -0.01300
C202        C  0.06492860  0.43475223  0.10134175    -0.01300
C203        C  0.23929585  0.00872443  0.79901423     0.03500
C204        C  0.24422223  0.03807419  0.79112235     0.03400
C205        C  0.22840013  0.05062745  0.76823024    -0.17100
C206        C  0.20688345  0.03446191  0.75397441     0.03500
C207        C  0.19992732  0.00600213  0.76373476     0.03400
C208        C  0.21680258  0.99294798  0.78569767    -0.17100
H209        H  0.21245488  0.97075384  0.79240496     0.05500
H210        H  0.23290054  0.07276372  0.76144119     0.05500
C211        C  0.46039902  0.76597678  0.30299795     0.03500
C212        C  0.49098682  0.76868837  0.30499788     0.03400
C213        C  0.50543890  0.78960562  0.28800405    -0.17100
C214        C  0.48974791  0.80779443  0.26899836     0.03500
C215        C  0.45916191  0.80558248  0.26729566     0.03400
C216        C  0.44467236  0.78441901  0.28410809    -0.17100
H217        H  0.42129828  0.78240061  0.28260179     0.05500
H218        H  0.52886027  0.79139462  0.28920234     0.05500
C219        C  0.49761279  0.30786810  0.77128362     0.03500
C220        C  0.47160267  0.29566421  0.76046177     0.03400
C221        C  0.46095747  0.26979385  0.77283105    -0.17100
C222        C  0.47548518  0.25643257  0.79644031     0.03500
C223        C  0.49985066  0.27040075  0.80933165     0.03400
C224        C  0.51143513  0.29537211  0.79579330    -0.17100
H225        H  0.53100675  0.30520248  0.80442889     0.05500
H226        H  0.44139997  0.26004152  0.76407840     0.05500
C227        C  0.56546419  0.11325955  0.93891632    -0.01300
N228        N  0.51240580  0.96875770  0.99071735    -0.04900
N229        N  0.51864898  0.94870728  0.97065440    -0.57100
N230        N  0.53229930  0.99015344  0.05856323    -0.04600
N231        N  0.55325268  0.98362766  0.07748228    -0.59200
N232        N  0.51247173  0.96942097  0.05848825    -0.04200
N233        N  0.52021128  0.94843180  0.07694003    -0.57000
N234        N  0.53242010  0.98927698  0.99069033    -0.03900
N235        N  0.55251112  0.98325871  0.97083767    -0.59500
C236        C  0.54380394  0.95794842  0.95811209     0.97200
C237        C  0.54552506  0.95754313  0.08928259     0.97000
N238        N  0.51176248  0.08140078  0.05678117    -0.05100
N239        N  0.51877289  0.10274262  0.07503406    -0.57600
N240        N  0.53311299  0.06078783  0.98971620    -0.03200
N241        N  0.55443048  0.06816901  0.97155250    -0.58900
N242        N  0.51294694  0.08125454  0.98966461    -0.05100
N243        N  0.52048447  0.10269478  0.97168813    -0.57900
N244        N  0.53191509  0.06099718  0.05721787    -0.02900
N245        N  0.55262695  0.06826410  0.07587461    -0.59000
Mn246      Mn  0.53274771  0.02518173  0.02401246     1.18400
C247        C  0.54405718  0.09413164  0.08762379     0.99300
C248        C  0.54636085  0.09432313  0.95997183     1.00000
N249        N  0.44034279  0.96950558  0.05796402    -0.05200
N250        N  0.43247678  0.94914345  0.07713907    -0.61500
N251        N  0.42243495  0.98891792  0.98810895    -0.04000
N252        N  0.40295092  0.98196205  0.96782886    -0.62100
N253        N  0.44252825  0.96849577  0.98964111    -0.04700
N254        N  0.43680745  0.94757835  0.97053889    -0.61700
N255        N  0.41998456  0.98976097  0.05649848    -0.03600
N256        N  0.39833170  0.98333182  0.07465474    -0.62400
Mn257      Mn  0.47690881  0.96858631  0.02444849     1.10700
C258        C  0.40648572  0.95826984  0.08833217     1.00600
C259        C  0.41232946  0.95617295  0.95636083     1.00600
N260        N  0.44237482  0.08024199  0.98855895    -0.04700
N261        N  0.43634560  0.10097490  0.96939189    -0.60100
N262        N  0.42093234  0.06024867  0.05523992    -0.04000
N263        N  0.40008273  0.06700026  0.07405423    -0.56800
N264        N  0.44145555  0.08021363  0.05601836    -0.05300
N265        N  0.43479574  0.10056871  0.07549417    -0.59600
N266        N  0.42236007  0.05977116  0.98748407    -0.04300
N267        N  0.40266971  0.06636610  0.96723939    -0.56800
Mn268      Mn  0.47699808  0.08104207  0.02279145     1.20200
Mn269      Mn  0.42096007  0.02466502  0.02170558     1.10100
Cl270      Cl  0.47693924  0.02483753  0.02329290    -0.84800
C271        C  0.41155366  0.09225375  0.95588409     0.97600
C272        C  0.40898106  0.09201410  0.08707513     0.97400
C273        C  0.56544557  0.93872160  0.10973378    -0.01300
C274        C  0.39331590  0.93527268  0.93755542     0.02700
C275        C  0.39602601  0.11088175  0.93210398    -0.01300
C276        C  0.56194937  0.94176858  0.93433795    -0.01300
C277        C  0.38465356  0.93790341  0.10464683    -0.01300
C278        C  0.49780286  0.73214607  0.77527970     0.03500
C279        C  0.46760444  0.73555590  0.77046288     0.03400
C280        C  0.45190861  0.75623679  0.78657480    -0.17100
C281        C  0.46620748  0.77455354  0.80638681     0.03500
C282        C  0.49674007  0.77248299  0.80986124     0.03400
C283        C  0.51226853  0.75078495  0.79479914    -0.17100
H284        H  0.53566101  0.74945865  0.79699687     0.05500
H285        H  0.42888750  0.75910692  0.78259557     0.05500
C286        C  0.38977708  0.11127399  0.10726779    -0.01300
C287        C  0.56413609  0.11238462  0.10789926    -0.01300
C288        C  0.99695445  0.74545515  0.26454105     0.03500
C289        C  0.96626287  0.74445506  0.26600732     0.03400
C290        C  0.95132027  0.76328797  0.28502765    -0.17100
C291        C  0.96664079  0.78348395  0.30218210     0.03500
C292        C  0.99728366  0.78515561  0.29997356     0.03400
C293        C  0.01228426  0.76599935  0.28125172    -0.17100
H294        H  0.03572925  0.76713776  0.27962937     0.05500
H295        H  0.92781701  0.76288038  0.28577730     0.05500
C296        C  0.71661763  0.01659951  0.24556209     0.03500
C297        C  0.70660093  0.04490825  0.25259471     0.03400
C298        C  0.72063997  0.06127190  0.27420759    -0.17100
C299        C  0.74431964  0.04955499  0.28948495     0.03500
C300        C  0.75475025  0.02123645  0.28245719     0.03400
C301        C  0.74056191  0.00488049  0.26063475    -0.17100
H302        H  0.74815922  0.98315374  0.25537328     0.05500
H303        H  0.71280948  0.08291685  0.27950183     0.05500
C304        C  0.68985711  0.28010682  0.49682834     0.03500
C305        C  0.68424746  0.27602695  0.52701988     0.03400
C306        C  0.69965080  0.25475815  0.54270483    -0.17100
C307        C  0.72121053  0.23801818  0.52886503     0.03500
C308        C  0.72841621  0.24355012  0.49915227     0.03400
C309        C  0.71215308  0.26408052  0.48310474    -0.17100
H310        H  0.71740383  0.26821351  0.46034979     0.05500
H311        H  0.69522334  0.25159128  0.56578753     0.05500
C312        C  0.21857288  0.73530549  0.51460101     0.03500
C313        C  0.22157939  0.73953607  0.54510293     0.03400
C314        C  0.20586680  0.76209256  0.55882061    -0.17100
C315        C  0.18583348  0.77901219  0.54273609     0.03500
C316        C  0.17926904  0.77131897  0.51328372     0.03400
C317        C  0.19662680  0.75017811  0.49919103    -0.17100
H318        H  0.19371242  0.74595527  0.47604579     0.05500
H319        H  0.20989364  0.76705704  0.58164130     0.05500
C320        C  0.89418504  0.11649744  0.43519412    -0.01300
N321        N  0.93780857  0.06129664  0.57740615    -0.04900
N322        N  0.92906919  0.08038824  0.59752403    -0.57100
N323        N  0.91947456  0.99417410  0.55738206    -0.04600
N324        N  0.89818051  0.97613104  0.56398639    -0.59200
N325        N  0.93879738  0.99435800  0.57865288    -0.04200
N326        N  0.93072263  0.97636252  0.59985168    -0.57000
N327        N  0.91891718  0.06082906  0.55568446    -0.03900
N328        N  0.89762433  0.07963114  0.56051553    -0.59500
C329        C  0.90383882  0.09184175  0.58673384     0.97200
C330        C  0.90544281  0.96456312  0.59031164     0.97000
N331        N  0.94154668  0.99195510  0.46657783    -0.05100
N332        N  0.93493194  0.97272299  0.44591429    -0.57600
N333        N  0.92026983  0.05982906  0.48523594    -0.03200
N334        N  0.90000430  0.07925592  0.47813642    -0.58900
N335        N  0.94120423  0.05977561  0.46555680    -0.05100
N336        N  0.93538826  0.07925990  0.44492752    -0.57900
N337        N  0.92087428  0.99253337  0.48655180    -0.02900
N338        N  0.89997964  0.97401499  0.47951184    -0.59000
Mn339      Mn  0.91971737  0.02679458  0.52121211     1.18400
C340        C  0.90921962  0.96083773  0.45453472     0.99300
C341        C  0.90953103  0.09155645  0.45281381     1.00000
N342        N  0.00924601  0.99321771  0.58124786    -0.05200
N343        N  0.01568786  0.97497081  0.60296291    -0.61500
N344        N  0.03047774  0.05961267  0.55942814    -0.04000
N345        N  0.05184993  0.07738554  0.56706693    -0.62100
N346        N  0.00957316  0.06051792  0.57919747    -0.04700
N347        N  0.01670566  0.07873610  0.60046855    -0.61700
N348        N  0.02961876  0.99203043  0.56090391    -0.03600
N349        N  0.04988662  0.97284074  0.56857230    -0.62400
Mn350      Mn  0.97389577  0.02750715  0.57959661     1.10700
C351        C  0.04087646  0.96167983  0.59467677     1.00600
C352        C  0.04274888  0.09006039  0.59235983     1.00600
N353        N  0.01221767  0.05951202  0.46795202    -0.04700
N354        N  0.01909073  0.07902122  0.44771082    -0.60100
N355        N  0.03125452  0.99123382  0.48914961    -0.04000
N356        N  0.05191793  0.97205907  0.48265452    -0.56800
N357        N  0.01194146  0.99214477  0.46785243    -0.05300
N358        N  0.01957903  0.97396836  0.44661819    -0.59600
N359        N  0.03228613  0.05907090  0.48854916    -0.04300
N360        N  0.05293684  0.07830391  0.48232347    -0.56800
Mn361      Mn  0.97677220  0.02592926  0.46657321     1.20200
Mn362      Mn  0.03132787  0.02535455  0.52449405     1.10100
Cl363      Cl  0.97547654  0.02644393  0.52299122    -0.84800
C364        C  0.04433769  0.09129346  0.45693791     0.97600
C365        C  0.04409773  0.96056020  0.45633539     0.97400
C366        C  0.88842151  0.94446401  0.43366115    -0.01300
C367        C  0.06550475  0.94396289  0.43609437    -0.01300
C368        C  0.06055647  0.94292582  0.61522888    -0.01300
C369        C  0.88501749  0.11567686  0.60180584    -0.01300
C370        C  0.88409764  0.94577203  0.60825632    -0.01300
C371        C  0.71283085  0.75302182  0.51112247     0.03500
C372        C  0.70866497  0.75758534  0.54149747     0.03400
C373        C  0.72719464  0.77652201  0.55668372    -0.17100
C374        C  0.74857935  0.79214649  0.54141804     0.03500
C375        C  0.75057759  0.78988609  0.51055953     0.03400
C376        C  0.73309046  0.76982675  0.49563025    -0.17100
H377        H  0.73522937  0.76730435  0.47214127     0.05500
H378        H  0.72489554  0.77920744  0.58014400     0.05500
C379        C  0.06295810  0.11218580  0.43750340    -0.01300
C380        C  0.06345759  0.10435573  0.61448479    -0.01300
C381        C  0.97491298  0.77035815  0.80343907     0.03500
C382        C  0.94520241  0.77620169  0.80860501     0.03400
C383        C  0.93139146  0.79931973  0.79428209    -0.17100
C384        C  0.94671076  0.81609784  0.77388039     0.03500
C385        C  0.97570001  0.80870662  0.76675593     0.03400
C386        C  0.98997739  0.78645947  0.78223718    -0.17100
H387        H  0.01247327  0.78138661  0.77745890     0.05500
H388        H  0.90858609  0.80361860  0.79825425     0.05500
C389        C  0.69252182  0.02080072  0.78162557     0.03500
C390        C  0.68398932  0.04866916  0.77154829     0.03400
C391        C  0.69882246  0.06156525  0.74806747    -0.17100
C392        C  0.72223233  0.04709113  0.73455450     0.03500
C393        C  0.73151387  0.01957430  0.74546245     0.03400
C394        C  0.71607611  0.00638327  0.76846268    -0.17100
H395        H  0.72293519  0.98533230  0.77670770     0.05500
H396        H  0.69251054  0.08308233  0.74065866     0.05500
C397        C  0.73895245  0.74878939  0.99999654     0.03500
C398        C  0.74522432  0.75493243  0.02967881     0.03400
C399        C  0.72796906  0.77482593  0.04528097    -0.17100
C400        C  0.70528368  0.78956418  0.03108140     0.03500
C401        C  0.70041422  0.78480063  0.00088570     0.03400
C402        C  0.71705117  0.76427881  0.98556844    -0.17100
H403        H  0.71295868  0.76038663  0.96252289     0.05500
H404        H  0.73219977  0.77883931  0.06826419     0.05500
C405        C  0.88133718  0.90003909  0.67883318    -0.27000
C406        C  0.90969146  0.90004774  0.68928717     0.06600
C407        C  0.93090619  0.91612049  0.67404198     0.26200
C408        C  0.92391904  0.93043211  0.64765453    -0.11500
C409        C  0.89526292  0.92986053  0.63654287    -0.25400
C410        C  0.87424875  0.91402321  0.65305357     0.37000
C411        C  0.91678128  0.88001320  0.71375457     0.06600
F412        F  0.95862142  0.91712588  0.68400811    -0.19200
H413        H  0.94129501  0.94119706  0.63627047     0.16400
F414        F  0.84652189  0.91084694  0.64354779    -0.22900
H415        H  0.86449525  0.88810993  0.69024756     0.18200
C416        C  0.93352811  0.88865851  0.73794548     0.26200
C417        C  0.94091142  0.86828548  0.75952822    -0.11500
C418        C  0.93172387  0.83919752  0.75717253    -0.25500
C419        C  0.91316287  0.83120065  0.73436061     0.37100
C420        C  0.90604722  0.85132514  0.71273709    -0.27100
F421        F  0.94300552  0.91649538  0.74055575    -0.19300
H422        H  0.95519301  0.87472443  0.77719492     0.16400
F423        F  0.90394588  0.80327198  0.73167074    -0.23000
H424        H  0.89301664  0.84405617  0.69441930     0.18300
C425        C  0.85017438  0.99069448  0.66826884    -0.27000
C426        C  0.82069778  0.98290609  0.66650423     0.06600
C427        C  0.81071755  0.97162445  0.63965598     0.26200
C428        C  0.83038645  0.96275681  0.61808534    -0.11500
C429        C  0.86068559  0.96661224  0.62167696    -0.25400
C430        C  0.86937418  0.98470329  0.64530602     0.37000
C431        C  0.80038431  0.98831551  0.69165331     0.06600
F432        F  0.78193039  0.96850308  0.63418483    -0.19200
H433        H  0.82104515  0.95059172  0.60045993     0.16400
F434        F  0.89770439  0.99181767  0.64910460    -0.22900
H435        H  0.85894152  0.00060898  0.68781777     0.18200
C436        C  0.77589312  0.97043670  0.69679387     0.26200
C437        C  0.75420249  0.97927784  0.71643688    -0.11500
C438        C  0.75746969  0.00491036  0.73269083    -0.25500
C439        C  0.78433749  0.01933524  0.73191674     0.37100
C440        C  0.80495312  0.01197927  0.71072123    -0.27100
F441        F  0.77253668  0.94469354  0.68262118    -0.19300
H442        H  0.73418122  0.96698828  0.71774289     0.16400
F443        F  0.78950295  0.04228470  0.74986923    -0.23000
H444        H  0.82367087  0.02597513  0.70846108     0.18300
C445        C  0.82034187  0.82366764  0.56064450    -0.27000
C446        C  0.81337028  0.85332878  0.56417284     0.06600
C447        C  0.78373697  0.86127865  0.56590993     0.26200
C448        C  0.76200214  0.84040160  0.56187806    -0.11500
C449        C  0.76933007  0.81120746  0.55691979    -0.25400
C450        C  0.79858439  0.80272176  0.55815296     0.37000
C451        C  0.83678249  0.87557877  0.56737021     0.06600
F452        F  0.77563333  0.88926700  0.57095653    -0.19200
H453        H  0.73952817  0.84732347  0.56066685     0.16400
F454        F  0.80619912  0.77452546  0.55339966    -0.22900
H455        H  0.84263454  0.81658500  0.55834248     0.18200
C456        C  0.86208294  0.86952244  0.58349198     0.26200
C457        C  0.88054342  0.89203604  0.59156256    -0.11500
C458        C  0.87238980  0.92148465  0.58723020    -0.25500
C459        C  0.85176933  0.92655104  0.56482151     0.37100
C460        C  0.83356481  0.90381600  0.55570395    -0.27100
F461        F  0.86767578  0.84261620  0.59440873    -0.19300
H462        H  0.89930478  0.88624323  0.60459544     0.16400
F463        F  0.84627567  0.95377628  0.55464540    -0.23000
H464        H  0.81602234  0.90866940  0.54066511     0.18300
C465        C  0.76430366  0.05825415  0.66416463    -0.27000
C466        C  0.78418563  0.07978725  0.67298817     0.06600
C467        C  0.77964319  0.09367127  0.70025732     0.26200
C468        C  0.75682848  0.08525766  0.71855139    -0.11500
C469        C  0.73890423  0.06190246  0.71093520    -0.25400
C470        C  0.74200514  0.04918955  0.68303554     0.37000
C471        C  0.80982935  0.08766557  0.65441949     0.06600
F472        F  0.79866026  0.11374960  0.71053528    -0.19200
H473        H  0.75506521  0.09499315  0.74008836     0.16400
F474        F  0.72470359  0.02671470  0.67490852    -0.22900
H475        H  0.76649169  0.04779734  0.64304915     0.18200
C476        C  0.82725066  0.06663988  0.64011512     0.26200
C477        C  0.85255019  0.07470659  0.62477859    -0.11500
C478        C  0.86047897  0.10421845  0.62239128    -0.25500
C479        C  0.84254301  0.12508596  0.63683758     0.37100
C480        C  0.81773469  0.11689863  0.65197827    -0.27100
F481        F  0.81962718  0.03830292  0.64046989    -0.19300
H482        H  0.86506507  0.05798041  0.61379363     0.16400
F483        F  0.84868245  0.15397199  0.63575815    -0.23000
H484        H  0.80440603  0.13383365  0.66161765     0.18300
C485        C  0.04984074  0.88070067  0.67059998    -0.27000
C486        C  0.02030751  0.87489123  0.66929051     0.06600
C487        C  0.00385150  0.88739337  0.64640541     0.26200
C488        C  0.01634479  0.90863566  0.62783514    -0.11500
C489        C  0.04568381  0.91686377  0.63133199    -0.25400
C490        C  0.06242974  0.90078475  0.65209165     0.37000
C491        C  0.00779068  0.85774254  0.69382716     0.06600
F492        F  0.97565688  0.87988024  0.64260407    -0.19200
H493        H  0.00290586  0.91888624  0.61138630     0.16400
F494        F  0.09062708  0.90684689  0.65752983    -0.22900
H495        H  0.06323138  0.87060058  0.68728776     0.18200
C496        C  0.99191234  0.83211804  0.68913555     0.26200
C497        C  0.98298156  0.81518774  0.71303226    -0.11500
C498        C  0.99011322  0.82333578  0.74182132    -0.25500
C499        C  0.00641666  0.84857843  0.74652779     0.37100
C500        C  0.01485192  0.86573994  0.72278890    -0.27100
F501        F  0.98570547  0.82308664  0.66157759    -0.19300
H502        H  0.96988278  0.79599515  0.70918735     0.16400
F503        F  0.01290812  0.85732413  0.77415634    -0.23000
H504        H  0.02712133  0.88541389  0.72699370     0.18300
C505        C  0.85326436  0.88710331  0.48622955    -0.27000
C506        C  0.82877916  0.87873514  0.46986034     0.06600
C507        C  0.82341771  0.89247936  0.44322668     0.26200
C508        C  0.84211418  0.91375849  0.43282734    -0.11500
C509        C  0.86625637  0.92386935  0.44930527    -0.25400
C510        C  0.87173913  0.90953737  0.47630184     0.37000
C511        C  0.80890012  0.85520159  0.47949070     0.06600
F512        F  0.80068835  0.88428596  0.42618912    -0.19200
H513        H  0.83749684  0.92184175  0.41171057     0.16400
F514        F  0.89568064  0.91561005  0.49243202    -0.22900
H515        H  0.85827549  0.87603977  0.50639562     0.18200
C516        C  0.81889901  0.82654383  0.48363272     0.26200
C517        C  0.79927263  0.80424790  0.49060368    -0.11500
C518        C  0.76958607  0.81041830  0.49432395    -0.25500
C519        C  0.75952774  0.83883792  0.48915614     0.37100
C520        C  0.77899639  0.86094836  0.48178408    -0.27100
F521        F  0.84758061  0.82018017  0.48105279    -0.19300
H522        H  0.80746262  0.78253965  0.49492710     0.16400
F523        F  0.73103026  0.84549349  0.49293562    -0.23000
H524        H  0.77078705  0.88281731  0.47832582     0.18300
C525        C  0.12397054  0.88593923  0.45695251    -0.27000
C526        C  0.10715862  0.86376031  0.46942489     0.06600
C527        C  0.07759767  0.87026837  0.47502120     0.26200
C528        C  0.06585324  0.89778959  0.46784424    -0.11500
C529        C  0.08215088  0.91904238  0.45254473    -0.25400
C530        C  0.11158291  0.91155144  0.44641372     0.37000
C531        C  0.12135609  0.83469490  0.47611792     0.06600
F532        F  0.05930742  0.84977156  0.48572997    -0.19200
H533        H  0.04298002  0.90146807  0.47188933     0.16400
F534        F  0.12833471  0.92657350  0.42738363    -0.22900
H535        H  0.14702342  0.88305411  0.45351580     0.18200
C536        C  0.14591127  0.82484025  0.46002047     0.26200
C537        C  0.16370652  0.80250419  0.47084835    -0.11500
C538        C  0.15642695  0.78786360  0.49668471    -0.25500
C539        C  0.12894476  0.79341407  0.50916811     0.37100
C540        C  0.11229029  0.81730655  0.49984513    -0.27100
F541        F  0.15336076  0.83709143  0.43405710    -0.19300
H542        H  0.18403683  0.79782073  0.45985224     0.16400
F543        F  0.11935611  0.77722736  0.53205968    -0.23000
H544        H  0.09323823  0.82275538  0.51246476     0.18300
C545        C  0.13218550  0.90174208  0.59416104    -0.27000
C546        C  0.12143091  0.88214876  0.57377939     0.06600
C547        C  0.09330634  0.88629119  0.56281518     0.26200
C548        C  0.07555925  0.90862518  0.57394745    -0.11500
C549        C  0.08492072  0.92699090  0.59703210    -0.25400
C550        C  0.11457203  0.92345120  0.60603823     0.37000
C551        C  0.13901848  0.85602578  0.56684782     0.06600
F552        F  0.08233254  0.86772373  0.54265958    -0.19200
H553        H  0.05330235  0.90978990  0.56635431     0.16400
F554        F  0.12646270  0.93709209  0.62921647    -0.22900
H555        H  0.15387282  0.89865255  0.60289879     0.18200
C556        C  0.16167347  0.85749471  0.54640447     0.26200
C557        C  0.17880360  0.83291083  0.54078366    -0.11500
C558        C  0.17352024  0.80638323  0.55531269    -0.25500
C559        C  0.15239353  0.80563285  0.57752658     0.37100
C560        C  0.13510529  0.83026835  0.58302175    -0.27100
F561        F  0.16664244  0.88244628  0.53130693    -0.19300
H562        H  0.19510013  0.83399061  0.52369510     0.16400
F563        F  0.14700898  0.78054715  0.59224566    -0.23000
H564        H  0.11836132  0.82918605  0.59966927     0.18300
C565        C  0.77779457  0.18570037  0.46717333    -0.27000
C566        C  0.80482046  0.19420292  0.47873920     0.06600
C567        C  0.80688115  0.22139212  0.49276574     0.26200
C568        C  0.78218841  0.23882098  0.49658446    -0.11500
C569        C  0.75489968  0.22965166  0.48646269    -0.25400
C570        C  0.75304838  0.20334692  0.47079677     0.37000
C571        C  0.83119773  0.17577885  0.47436174     0.06600
F572        F  0.83255971  0.23048071  0.50405477    -0.19200
H573        H  0.78397350  0.25870495  0.50920704     0.16400
F574        F  0.72692055  0.19362654  0.46121777    -0.22900
H575        H  0.77579534  0.16519209  0.45563710     0.18200
C576        C  0.83198862  0.14613707  0.48163820     0.26200
C577        C  0.85574251  0.12871733  0.47355789    -0.11500
C578        C  0.87864221  0.13946778  0.45566750    -0.25500
C579        C  0.87824317  0.17032451  0.45066375     0.37100
C580        C  0.85530556  0.18774825  0.46047796    -0.27100
F581        F  0.80890072  0.13333912  0.49465907    -0.19300
H582        H  0.85358210  0.10564418  0.47753996     0.16400
F583        F  0.89659504  0.18429021  0.43250714    -0.23000
H584        H  0.85508552  0.21056232  0.45439519     0.18300
C585        C  0.78205325  0.20645149  0.57318747    -0.27000
C586        C  0.78598649  0.17945864  0.55877314     0.06600
C587        C  0.76267120  0.16921992  0.54135363     0.26200
C588        C  0.73876464  0.18716307  0.53558556    -0.11500
C589        C  0.73812104  0.21599977  0.54557739    -0.25400
C590        C  0.75888040  0.22490869  0.56603445     0.37000
C591        C  0.81447185  0.16329243  0.56169535     0.06600
F592        F  0.76344091  0.14308933  0.52766152    -0.19200
H593        H  0.72235512  0.17967758  0.52038973     0.16400
F594        F  0.75834663  0.25241520  0.57689100    -0.22900
H595        H  0.79767779  0.21415010  0.58901046     0.18200
C596        C  0.84068718  0.17826700  0.56705026     0.26200
C597        C  0.86565002  0.16331637  0.57625315    -0.11500
C598        C  0.86609251  0.13256190  0.57855389    -0.25500
C599        C  0.84199984  0.11787015  0.56570464     0.37100
C600        C  0.81612261  0.13279384  0.55977382    -0.27100
F601        F  0.84220018  0.20769405  0.56481962    -0.19300
H602        H  0.88294804  0.17673424  0.58363546     0.16400
F603        F  0.84099740  0.08836644  0.56451125    -0.23000
H604        H  0.79719499  0.11979259  0.55552444     0.18300
C605        C  0.79459221  0.97918188  0.34086196    -0.27000
C606        C  0.81919904  0.99693042  0.34510269     0.06600
C607        C  0.82515498  0.01867005  0.32423210     0.26200
C608        C  0.80594806  0.02355831  0.30099589    -0.11500
C609        C  0.77943700  0.00851926  0.29933280    -0.25400
C610        C  0.77468077  0.98512835  0.31846565     0.37000
C611        C  0.83813798  0.99239463  0.37127073     0.06600
F612        F  0.84814289  0.03681223  0.32748248    -0.19200
H613        H  0.81050177  0.04100718  0.28577320     0.16400
F614        F  0.74984291  0.96936729  0.31680746    -0.22900
H615        H  0.79014754  0.96130026  0.35562383     0.18200
C616        C  0.82588593  0.98598292  0.39879880     0.26200
C617        C  0.84344395  0.97624920  0.42170475    -0.11500
C618        C  0.87280371  0.96923150  0.41645917    -0.25500
C619        C  0.88603031  0.98248315  0.39185414     0.37100
C620        C  0.86862585  0.99313055  0.36901377    -0.27100
F621        F  0.79682747  0.98832543  0.40334953    -0.19300
H622        H  0.83309923  0.97044453  0.44225408     0.16400
F623        F  0.91507655  0.98020925  0.38736615    -0.23000
H624        H  0.87904417  0.99905370  0.34862354     0.18300
C625        C  0.83155783  0.12127897  0.37911467    -0.27000
C626        C  0.81969694  0.09339117  0.37911504     0.06600
C627        C  0.83101695  0.07275429  0.39905173     0.26200
C628        C  0.85506526  0.07935837  0.41690050    -0.11500
C629        C  0.86803234  0.10705609  0.41570090    -0.25400
C630        C  0.85527009  0.12799703  0.39652440     0.37000
C631        C  0.79698428  0.08595787  0.35693920     0.06600
F632        F  0.81904140  0.04606752  0.40117295    -0.19200
H633        H  0.86328031  0.06284909  0.43161535     0.16400
F634        F  0.86657126  0.15502843  0.39329433    -0.22900
H635        H  0.82274699  0.13811779  0.36507176     0.18200
C636        C  0.79958155  0.09569165  0.32763363     0.26200
C637        C  0.77976658  0.08668277  0.30631673    -0.11500
C638        C  0.75802026  0.06661817  0.31330777    -0.25500
C639        C  0.75415904  0.05826812  0.34263205     0.37100
C640        C  0.77320631  0.06822925  0.36430513    -0.27100
F641        F  0.82273857  0.11171433  0.31882945    -0.19300
H642        H  0.78332742  0.09287313  0.28370628     0.16400
F643        F  0.73316059  0.03888470  0.34988489    -0.23000
H644        H  0.76990620  0.06117646  0.38666255     0.18300
C645        C  0.02771930  0.85862511  0.32058244    -0.27000
C646        C  0.02729168  0.85682819  0.35129723     0.06600
C647        C  0.02114570  0.82992495  0.36458132     0.26200
C648        C  0.01430083  0.80565159  0.34744658    -0.11500
C649        C  0.01301034  0.80785854  0.31682497    -0.25400
C650        C  0.02051055  0.83436656  0.30342251     0.37000
C651        C  0.03449338  0.88255615  0.36954942     0.06600
F652        F  0.02150480  0.82721837  0.39417088    -0.19200
H653        H  0.00826925  0.78548963  0.35813881     0.16400
F654        F  0.01885584  0.83731106  0.27390023    -0.22900
H655        H  0.03271726  0.87909714  0.30995392     0.18200
C656        C  0.06207249  0.89488125  0.36790084     0.26200
C657        C  0.07042565  0.91608779  0.38797559    -0.11500
C658        C  0.05151328  0.92652300  0.41029231    -0.25500
C659        C  0.02315021  0.91447990  0.41099663     0.37100
C660        C  0.01492107  0.89310498  0.39059182    -0.27100
F661        F  0.08183901  0.88479248  0.34827499    -0.19300
H662        H  0.09272199  0.92324962  0.38687405     0.16400
F663        F  0.00402660  0.92098624  0.43259645    -0.23000
H664        H  0.99350810  0.88375866  0.39188361     0.18300
C665        C  0.94037784  0.85588719  0.32997165    -0.27000
C666        C  0.93445893  0.84996115  0.35963187     0.06600
C667        C  0.93579263  0.82083952  0.36932000     0.26200
C668        C  0.94421756  0.79858305  0.34994062    -0.11500
C669        C  0.95085841  0.80495209  0.32060201    -0.25400
C670        C  0.94801804  0.83366521  0.31060444     0.37000
C671        C  0.92445574  0.87428768  0.37886208     0.06600
F672        F  0.92855615  0.81379505  0.39722690    -0.19200
H673        H  0.94662214  0.77653250  0.35805737     0.16400
F674        F  0.95411704  0.84039425  0.28232346    -0.22900
H675        H  0.93932542  0.87799638  0.32175631     0.18200
C676        C  0.93519054  0.87938044  0.40730550     0.26200
C677        C  0.92550586  0.90361402  0.42360633    -0.11500
C678        C  0.90420312  0.92294348  0.41249912    -0.25500
C679        C  0.89273876  0.91622686  0.38425882     0.37100
C680        C  0.90332177  0.89309672  0.36786101    -0.27100
F681        F  0.95473893  0.86090921  0.41957375    -0.19300
H682        H  0.93368418  0.90645844  0.44562341     0.16400
F683        F  0.86961898  0.93021179  0.37250465    -0.23000
H684        H  0.89370478  0.88903079  0.34661625     0.18300
C685        C  0.66315347  0.07598722  0.19080317    -0.27000
C686        C  0.63578959  0.06362306  0.19626879     0.06600
C687        C  0.63076214  0.04979545  0.22327679     0.26200
C688        C  0.65341173  0.04670252  0.24343569    -0.11500
C689        C  0.68130935  0.05706279  0.23681304    -0.25400
C690        C  0.68576418  0.07278083  0.21090004     0.37000
C691        C  0.61260889  0.06666144  0.17401878     0.06600
F692        F  0.60460991  0.03763952  0.22936304    -0.19200
H693        H  0.64981313  0.03418712  0.26320797     0.16400
F694        F  0.71256388  0.08294128  0.20401436    -0.22900
H695        H  0.66720113  0.08759883  0.17055682     0.18200
C696        C  0.61787539  0.06024304  0.14434050     0.26200
C697        C  0.59881879  0.07042738  0.12274172    -0.11500
C698        C  0.57661121  0.09014828  0.13043953    -0.25500
C699        C  0.56739444  0.08964228  0.16015249     0.37100
C700        C  0.58585512  0.07886007  0.18178425    -0.27100
F701        F  0.64264956  0.04647764  0.13605580    -0.19300
H702        H  0.60467915  0.06723851  0.10000428     0.16400
F703        F  0.54173550  0.10153001  0.16871301    -0.23000
H704        H  0.58022549  0.08224228  0.20456069     0.18300
C705        C  0.58853162  0.99660100  0.87705729    -0.27000
C706        C  0.61873054  0.99166706  0.87903025     0.06600
C707        C  0.62977383  0.97957093  0.90493815     0.26200
C708        C  0.61090307  0.96797127  0.92563080    -0.11500
C709        C  0.58087404  0.96579316  0.91962517    -0.25400
C710        C  0.56960308  0.98490754  0.89820493     0.37000
C711        C  0.63855430  0.99770472  0.85399527     0.06600
F712        F  0.65875855  0.97598534  0.90896012    -0.19200
H713        H  0.62036979  0.95758357  0.94464461     0.16400
F714        F  0.54048957  0.98740078  0.89423480    -0.22900
H715        H  0.57954770  0.00787124  0.85829762     0.18200
C716        C  0.63214854  0.98734738  0.82568967     0.26200
C717        C  0.65135011  0.99244669  0.80245742    -0.11500
C718        C  0.67722518  0.00782579  0.80703400    -0.25500
C719        C  0.68434022  0.01691174  0.83548687     0.37100
C720        C  0.66503264  0.01218937  0.85861287    -0.27100
F721        F  0.60732952  0.97235365  0.82044270    -0.19300
H722        H  0.64531975  0.98575910  0.78054735     0.16400
F723        F  0.70890819  0.03242377  0.84042148    -0.23000
H724        H  0.67045270  0.02064211  0.88004996     0.18300
C725        C  0.59861014  0.88087222  0.98163307    -0.27000
C726        C  0.61842753  0.86949446  0.96119994     0.06600
C727        C  0.61943550  0.88120079  0.93311935     0.26200
C728        C  0.60182881  0.90450387  0.92590225    -0.11500
C729        C  0.58246684  0.91751900  0.94633510    -0.25400
C730        C  0.58107618  0.90502723  0.97464644     0.37000
C731        C  0.63923365  0.84640983  0.96918528     0.06600
F732        F  0.63728100  0.86978207  0.91236068    -0.19200
H733        H  0.60366444  0.91269854  0.90381712     0.16400
F734        F  0.56252189  0.91512210  0.99533299    -0.22900
H735        H  0.59688768  0.87105475  0.00305372     0.18200
C736        C  0.66921446  0.85137090  0.96607236     0.26200
C737        C  0.68909293  0.82990629  0.97404521    -0.11500
C738        C  0.67940336  0.80325537  0.98515136    -0.25500
C739        C  0.64948029  0.79759621  0.98680183     0.37100
C740        C  0.62947132  0.81926119  0.97915204    -0.27100
F741        F  0.67927842  0.87751520  0.95663772    -0.19300
H742        H  0.71210171  0.83468173  0.97321890     0.16400
F743        F  0.63975269  0.77179953  0.99741267    -0.23000
H744        H  0.60644580  0.81501049  0.98123839     0.18300
C745        C  0.52566934  0.81815919  0.87213248    -0.27000
C746        C  0.52315710  0.84628638  0.85989002     0.06600
C747        C  0.51691423  0.84854322  0.82968592     0.26200
C748        C  0.51276428  0.82365213  0.81274944    -0.11500
C749        C  0.51220896  0.79603200  0.82569021    -0.25400
C750        C  0.51962395  0.79325720  0.85534984     0.37000
C751        C  0.52808789  0.87315577  0.87788453     0.06600
F752        F  0.51260975  0.87479975  0.81671688    -0.19200
H753        H  0.50681523  0.82616253  0.78992832     0.16400
F754        F  0.51949668  0.76670839  0.86838492    -0.22900
H755        H  0.53178561  0.81532464  0.89480762     0.18200
C756        C  0.51941282  0.87570761  0.90734177     0.26200
C757        C  0.52591376  0.90085322  0.92358827    -0.11500
C758        C  0.54336752  0.92358302  0.91203933    -0.25500
C759        C  0.55119973  0.92065014  0.88183382     0.37100
C760        C  0.54329874  0.89635597  0.86553364    -0.27100
F761        F  0.50650371  0.85317332  0.92137007    -0.19300
H762        H  0.52069804  0.90033640  0.94662837     0.16400
F763        F  0.57075856  0.93784791  0.86827335    -0.23000
H764        H  0.55198273  0.89458174  0.84358193     0.18300
C765        C  0.44285825  0.87700464  0.90088943    -0.27000
C766        C  0.43028211  0.87454015  0.87299609     0.06600
C767        C  0.41096380  0.89637137  0.86412813     0.26200
C768        C  0.40289591  0.91841960  0.88349175    -0.11500
C769        C  0.41146340  0.91827543  0.91354438    -0.25400
C770        C  0.43437586  0.89883952  0.92065048     0.37000
C771        C  0.43587211  0.84817916  0.85457413     0.06600
F772        F  0.39731122  0.89506523  0.83783218    -0.19200
H773        H  0.38776102  0.93398677  0.87461009     0.16400
F774        F  0.44549012  0.89737354  0.94805658    -0.22900
H775        H  0.45784173  0.86059932  0.90827277     0.18200
C776        C  0.43992912  0.84992619  0.82395736     0.26200
C777        C  0.44603412  0.82482840  0.80765456    -0.11500
C778        C  0.44998443  0.79794860  0.82165757    -0.25500
C779        C  0.44497528  0.79583970  0.85184662     0.37100
C780        C  0.43752493  0.82060098  0.86800115    -0.27100
F781        F  0.44061770  0.87599768  0.81000931    -0.19300
H782        H  0.45065116  0.82689015  0.78448242     0.16400
F783        F  0.44904269  0.77013501  0.86595000    -0.23000
H784        H  0.43390221  0.81828321  0.89130954     0.18300
C785        C  0.61180329  0.89396837  0.05590378    -0.27000
C786        C  0.61612771  0.86798292  0.07165026     0.06600
C787        C  0.59875983  0.86283086  0.09631313     0.26200
C788        C  0.57937119  0.88396470  0.10618279    -0.11500
C789        C  0.57697328  0.91164088  0.09244032    -0.25400
C790        C  0.59195329  0.91519406  0.06553831     0.37000
C791        C  0.64004503  0.84744506  0.06367889     0.06600
F792        F  0.60259375  0.83866882  0.11302025    -0.19200
H793        H  0.56856244  0.87885784  0.12647440     0.16400
F794        F  0.59117368  0.94097202  0.05106640    -0.22900
H795        H  0.62499648  0.89861058  0.03684974     0.18200
C796        C  0.63570087  0.81705506  0.06351992     0.26200
C797        C  0.65842293  0.79818503  0.05621014    -0.11500
C798        C  0.68547005  0.80909135  0.04753653    -0.25500
C799        C  0.69023638  0.83927134  0.04825273     0.37100
C800        C  0.66778311  0.85822532  0.05655394    -0.27100
F801        F  0.60902037  0.80554186  0.06837191    -0.19300
H802        H  0.65420288  0.77502075  0.05496093     0.16400
F803        F  0.71602524  0.85044393  0.03932697    -0.23000
H804        H  0.67192444  0.88142401  0.05685555     0.18300
C805        C  0.65620788  0.97649972  0.20789669    -0.27000
C806        C  0.66018336  0.98556422  0.17879163     0.06600
C807        C  0.68605213  0.99988942  0.17117213     0.26200
C808        C  0.70636307  0.00715749  0.19280585    -0.11500
C809        C  0.70142014  0.99987399  0.22227000    -0.25400
C810        C  0.67680085  0.98329126  0.22944365     0.37000
C811        C  0.63779522  0.97882721  0.15639938     0.06600
F812        F  0.69091586  0.00822889  0.14309863    -0.19200
H813        H  0.72494397  0.02034546  0.18692449     0.16400
F814        F  0.67141495  0.97602505  0.25773179    -0.22900
H815        H  0.63677112  0.96473261  0.21403117     0.18200
C816        C  0.64363338  0.95803276  0.13492336     0.26200
C817        C  0.62126809  0.94724832  0.11746399    -0.11500
C818        C  0.59206931  0.95731605  0.12028240    -0.25500
C819        C  0.58752509  0.98153946  0.13904583     0.37100
C820        C  0.60981822  0.99106521  0.15782327    -0.27100
F821        F  0.67044333  0.94578874  0.13289577    -0.19300
H822        H  0.62730160  0.92896780  0.10408335     0.16400
F823        F  0.56043602  0.99262373  0.14285715    -0.23000
H824        H  0.60479142  0.00692867  0.17457875     0.18300
C825        C  0.60378399  0.06490813  0.88281557    -0.27000
C826        C  0.59940805  0.08021922  0.85670742     0.06600
C827        C  0.57770771  0.10139836  0.85574076     0.26200
C828        C  0.56350593  0.10983386  0.88146084    -0.11500
C829        C  0.56995918  0.09673601  0.90904979    -0.25400
C830        C  0.58804408  0.07162390  0.90818908     0.37000
C831        C  0.61998028  0.07672464  0.83198976     0.06600
F832        F  0.57264577  0.11640661  0.83063106    -0.19200
H833        H  0.54985855  0.12855916  0.87909735     0.16400
F834        F  0.59535723  0.05720662  0.93301083    -0.22900
H835        H  0.62112792  0.04910055  0.88422727     0.18200
C836        C  0.64900916  0.08552455  0.83524956     0.26200
C837        C  0.66922597  0.08011161  0.81304610    -0.11500
C838        C  0.66109442  0.06482659  0.78777520    -0.25500
C839        C  0.63162772  0.05797485  0.78351162     0.37100
C840        C  0.61115323  0.06412294  0.80545735    -0.27100
F841        F  0.65811068  0.09793184  0.86060209    -0.19300
H842        H  0.69189026  0.08517967  0.81688233     0.16400
F843        F  0.62323168  0.04297338  0.75937073    -0.23000
H844        H  0.58878174  0.05750619  0.80248239     0.18300
C845        C  0.47651524  0.18250830  0.83248841    -0.27000
C846        C  0.45077792  0.18394715  0.84895076     0.06600
C847        C  0.43046082  0.20609059  0.84251390     0.26200
C848        C  0.43739891  0.22835490  0.82289398    -0.11500
C849        C  0.46445723  0.22864649  0.80895285    -0.25400
C850        C  0.48303874  0.20439170  0.81214915     0.37000
C851        C  0.44558892  0.16427094  0.87431443     0.06600
F852        F  0.40437882  0.20698153  0.85636689    -0.19200
H853        H  0.42255770  0.24651561  0.82032632     0.16400
F854        F  0.50858459  0.20316658  0.79735067    -0.22900
H855        H  0.49238648  0.16556704  0.83659073     0.18200
C856        C  0.44993584  0.13389159  0.87310397     0.26200
C857        C  0.43871927  0.11616026  0.89551720    -0.11500
C858        C  0.42104230  0.12871233  0.91752600    -0.25500
C859        C  0.42504703  0.15873049  0.92294315     0.37100
C860        C  0.43617509  0.17643441  0.90089807    -0.27100
F861        F  0.46199463  0.12117499  0.84918335    -0.19300
H862        H  0.43924112  0.09274043  0.89270154     0.16400
F863        F  0.41574324  0.17136502  0.94814551    -0.23000
H864        H  0.43618277  0.19982608  0.90402826     0.18300
C865        C  0.50306145  0.23753602  0.88523669    -0.27000
C866        C  0.52855342  0.22082853  0.88347848     0.06600
C867        C  0.54724636  0.22501257  0.85936367     0.26200
C868        C  0.53936507  0.24384346  0.83644051    -0.11500
C869        C  0.51266321  0.25864818  0.83707110    -0.25400
C870        C  0.49541242  0.25665715  0.86252787     0.37000
C871        C  0.53423101  0.19691797  0.90486030     0.06600
F872        F  0.57188436  0.20892929  0.85671990    -0.19200
H873        H  0.55288287  0.24485308  0.81704814     0.16400
F874        F  0.46996654  0.27152744  0.86433184    -0.22900
H875        H  0.48848679  0.23487115  0.90365817     0.18200
C876        C  0.55991126  0.19595338  0.92098210     0.26200
C877        C  0.56812922  0.17037554  0.93539881    -0.11500
C878        C  0.55149867  0.14421780  0.93327844    -0.25500
C879        C  0.52339144  0.14720235  0.92100464     0.37100
C880        C  0.51534214  0.17308752  0.90661248    -0.27100
F881        F  0.57797186  0.21927483  0.92147451    -0.19300
H882        H  0.58887319  0.17131920  0.94611222     0.16400
F883        F  0.50585210  0.12369241  0.91797747    -0.23000
H884        H  0.49571405  0.17362859  0.89452804     0.18300
C885        C  0.43087963  0.87312990  0.22887967    -0.27000
C886        C  0.42847969  0.86297425  0.19995790     0.06600
C887        C  0.43282714  0.83302466  0.19450231     0.26200
C888        C  0.43991620  0.81394134  0.21724929    -0.11500
C889        C  0.44322462  0.82417323  0.24591729    -0.25400
C890        C  0.43811526  0.85390266  0.25171093     0.37000
C891        C  0.41887140  0.88251817  0.17570568     0.06600
F892        F  0.43124582  0.82232241  0.16684289    -0.19200
H893        H  0.44465997  0.79137310  0.21217244     0.16400
F894        F  0.44150716  0.86453017  0.27921421    -0.22900
H895        H  0.42707001  0.89590110  0.23380202     0.18200
C896        C  0.43183322  0.90957088  0.16932083     0.26200
C897        C  0.42240087  0.92616392  0.14506120    -0.11500
C898        C  0.39943433  0.91656536  0.12684977    -0.25500
C899        C  0.38586316  0.88983922  0.13504435     0.37100
C900        C  0.39577235  0.87335097  0.15842621    -0.27100
F901        F  0.45354445  0.91997721  0.18641287    -0.19300
H902        H  0.43238883  0.94712308  0.14120751     0.16400
F903        F  0.36207352  0.87920462  0.12148037    -0.23000
H904        H  0.38451637  0.85327698  0.16360018     0.18300
C905        C  0.51296396  0.87822230  0.23449563    -0.27000
C906        C  0.51669255  0.86956080  0.20521160     0.06600
C907        C  0.51613479  0.83972024  0.19833012     0.26200
C908        C  0.51025281  0.81917329  0.22012152    -0.11500
C909        C  0.50496015  0.82803442  0.24903823    -0.25400
C910        C  0.50726524  0.85763635  0.25630330     0.37000
C911        C  0.52503472  0.89135540  0.18286449     0.06600
F912        F  0.52152101  0.83043429  0.17063807    -0.19200
H913        H  0.50822486  0.79642956  0.21416069     0.16400
F914        F  0.50219703  0.86674642  0.28411382    -0.22900
H915        H  0.51410515  0.90105009  0.24035746     0.18200
C916        C  0.51057950  0.89423121  0.15598683     0.26200
C917        C  0.52182409  0.91240022  0.13398038    -0.11500
C918        C  0.54859536  0.92733635  0.13751265    -0.25500
C919        C  0.56255867  0.92374877  0.16538982     0.37100
C920        C  0.55018000  0.90726706  0.18759548    -0.27100
F921        F  0.48649995  0.87821449  0.15033954    -0.19300
H922        H  0.51090090  0.91188889  0.11315412     0.16400
F923        F  0.59018488  0.93200480  0.17088462    -0.23000
H924        H  0.56215084  0.90448199  0.20784640     0.18300
C925        C  0.11422993  0.98854903  0.65811554    -0.27000
C926        C  0.10704521  0.98004969  0.68682684     0.06600
C927        C  0.07892761  0.96973937  0.69213903     0.26200
C928        C  0.06091877  0.96291393  0.66850242    -0.11500
C929        C  0.07169930  0.96418323  0.63936595    -0.25400
C930        C  0.09550733  0.98267687  0.63460923     0.37000
C931        C  0.12923804  0.98093255  0.71044958     0.06600
F932        F  0.07008664  0.96312324  0.71970505    -0.19200
H933        H  0.04014351  0.95299885  0.67330646     0.16400
F934        F  0.10429505  0.98912720  0.60700050    -0.22900
H935        H  0.13531145  0.99764055  0.65345637     0.18200
C936        C  0.15647789  0.96738404  0.70656812     0.26200
C937        C  0.17900418  0.97228125  0.72657100    -0.11500
C938        C  0.17464276  0.99071789  0.75065063    -0.25500
C939        C  0.14645806  0.00115237  0.75647976     0.37100
C940        C  0.12397652  0.99642421  0.73640712    -0.27100
F941        F  0.16172965  0.95062987  0.68265335    -0.19300
H942        H  0.20052969  0.96399825  0.72175120     0.16400
F943        F  0.14157109  0.01872121  0.77987833    -0.23000
H944        H  0.10307523  0.00663185  0.74013087     0.18300
C945        C  0.17306221  0.03859223  0.67984579    -0.27000
C946        C  0.14745634  0.05422653  0.68617801     0.06600
C947        C  0.14535648  0.06861524  0.71346496     0.26200
C948        C  0.16684531  0.06490954  0.73468074    -0.11500
C949        C  0.19084194  0.04709138  0.72905854    -0.25400
C950        C  0.19473546  0.03537729  0.70095630     0.37000
C951        C  0.12309978  0.05597347  0.66469892     0.06600
F952        F  0.12217131  0.08569122  0.72009375    -0.19200
H953        H  0.16363513  0.07408831  0.75628736     0.16400
F954        F  0.21823079  0.01848255  0.69490355    -0.22900
H955        H  0.17587721  0.02735432  0.65926994     0.18200
C956        C  0.12808681  0.05893772  0.63438642     0.26200
C957        C  0.10547636  0.06788654  0.61612169    -0.11500
C958        C  0.07926350  0.07797122  0.62862060    -0.25500
C959        C  0.07200947  0.06705266  0.65649070     0.37100
C960        C  0.09407535  0.05632721  0.67456943    -0.27100
F961        F  0.15517435  0.05723353  0.62283026    -0.19300
H962        H  0.11056749  0.07278838  0.59349692     0.16400
F963        F  0.04488485  0.07048704  0.66762978    -0.23000
H964        H  0.08883636  0.05055930  0.69694189     0.18300
C965        C  0.28175117  0.07349230  0.85448940    -0.27000
C966        C  0.31096509  0.06882535  0.84696028     0.06600
C967        C  0.31770935  0.05846155  0.81871296     0.26200
C968        C  0.29558873  0.05197977  0.79888253    -0.11500
C969        C  0.26643476  0.05498423  0.80709098    -0.25400
C970        C  0.25961428  0.06674960  0.83466074     0.37000
C971        C  0.33440151  0.07594172  0.86802718     0.06600
F972        F  0.34562210  0.05287835  0.81090688    -0.19200
H973        H  0.30113423  0.04217268  0.77802894     0.16400
F974        F  0.23149239  0.06949429  0.84317612    -0.22900
H975        H  0.27607917  0.08189662  0.87590996     0.18200
C976        C  0.35709199  0.09393168  0.85923106     0.26200
C977        C  0.37827622  0.10237686  0.87901110    -0.11500
C978        C  0.37843653  0.09312137  0.90877476    -0.25500
C979        C  0.35509921  0.07468775  0.91731855     0.37100
C980        C  0.33355387  0.06635991  0.89720540    -0.27100
F981        F  0.35724482  0.10601175  0.83207946    -0.19300
H982        H  0.39213075  0.11935455  0.87090817     0.16400
F983        F  0.35078274  0.06744599  0.94573064    -0.23000
H984        H  0.31573100  0.05288185  0.90463649     0.18300
C985        C  0.32214197  0.94765629  0.89407911    -0.27000
C986        C  0.32640935  0.97476510  0.88152097     0.06600
C987        C  0.35212265  0.99008542  0.88752048     0.26200
C988        C  0.37236663  0.97896320  0.90779967    -0.11500
C989        C  0.36819931  0.95136260  0.92095066    -0.25400
C990        C  0.34318277  0.93533659  0.91176481     0.37000
C991        C  0.30451226  0.98454511  0.86018842     0.06600
F992        F  0.35849820  0.01467277  0.87248575    -0.19200
H993        H  0.39235370  0.99080309  0.91125904     0.16400
F994        F  0.34024982  0.90643019  0.91678019    -0.22900
H995        H  0.30334243  0.93477541  0.88809525     0.18200
C996        C  0.30875078  0.97960532  0.83016235     0.26200
C997        C  0.28610321  0.98462043  0.81041276    -0.11500
C998        C  0.25905796  0.99479731  0.82033690    -0.25500
C999        C  0.25450269  0.99868715  0.85047919     0.37100
C1000       C  0.27708981  0.99346265  0.87024677    -0.27100
F1001       F  0.33470662  0.96979074  0.82003252    -0.19300
H1002       H  0.29012136  0.98218617  0.78716877     0.16400
F1003       F  0.22875806  0.00909525  0.86054935    -0.23000
H1004       H  0.27326044  0.99638423  0.89345813     0.18300
C1005       C  0.04359601  0.63749695  0.18454514    -0.27000
C1006       C  0.02319514  0.65898339  0.17854478     0.06600
C1007       C  0.01046149  0.65969070  0.15055542     0.26200
C1008       C  0.02049255  0.64087600  0.12831154    -0.11500
C1009       C  0.04511274  0.62272805  0.13286560    -0.25400
C1010       C  0.05418390  0.61946311  0.16270279     0.37000
C1011       C  0.01808224  0.68165042  0.20117853     0.06600
F1012       F  0.98982705  0.67983896  0.14410204    -0.19200
H1013       H  0.01188890  0.64409531  0.10656968     0.16400
F1014       F  0.07457034  0.60047777  0.17202413    -0.22900
H1015       H  0.05329122  0.63592106  0.20609475     0.18200
C1016       C  0.01386585  0.67375548  0.23068594     0.26200
C1017       C  0.01166281  0.69511188  0.25232921    -0.11500
C1018       C  0.01214725  0.72472696  0.24488501    -0.25500
C1019       C  0.01817633  0.73271748  0.21582348     0.37100
C1020       C  0.02115878  0.71129098  0.19415648    -0.27100
F1021       F  0.01017284  0.64544205  0.23838922    -0.19300
H1022       H  0.00645586  0.68859310  0.27451789     0.16400
F1023       F  0.01903955  0.76122995  0.20809028    -0.23000
H1024       H  0.02561208  0.71785685  0.17182747     0.18300
C1025       C  0.78980865  0.69494085  0.06223446    -0.27000
C1026       C  0.81760107  0.70219276  0.05171452     0.06600
C1027       C  0.82183592  0.72960722  0.03866547     0.26200
C1028       C  0.79836481  0.74860667  0.03497604    -0.11500
C1029       C  0.77030394  0.74036914  0.04361432    -0.25400
C1030       C  0.76631893  0.71385956  0.05825885     0.37000
C1031       C  0.84170874  0.68095499  0.05512785     0.06600
F1032       F  0.84805009  0.73716990  0.02745740    -0.19200
H1033       H  0.80157444  0.76867829  0.02296857     0.16400
F1034       F  0.73931004  0.70518506  0.06630568    -0.22900
H1035       H  0.78612906  0.67418479  0.07283825     0.18200
C1036       C  0.86794260  0.68902970  0.06844530     0.26200
C1037       C  0.88675969  0.66756795  0.07887121    -0.11500
C1038       C  0.87812117  0.63805225  0.07887699    -0.25500
C1039       C  0.85630954  0.63001960  0.05867682     0.37100
C1040       C  0.83749203  0.65147638  0.04780478    -0.27100
F1041       F  0.87378556  0.71729524  0.07473741    -0.19300
H1042       H  0.90600542  0.67453625  0.09048145     0.16400
F1043       F  0.84941154  0.60161806  0.05445289    -0.23000
H1044       H  0.81827645  0.64488379  0.03589078     0.18300
C1045       C  0.93981388  0.64219487  0.16660022    -0.27000
C1046       C  0.92381275  0.66602359  0.17747792     0.06600
C1047       C  0.89691546  0.67240946  0.16510307     0.26200
C1048       C  0.88648616  0.65600740  0.14197384    -0.11500
C1049       C  0.90293968  0.63332593  0.12882938    -0.25400
C1050       C  0.92977547  0.62610581  0.14225637     0.37000
C1051       C  0.93483841  0.68555185  0.20077159     0.06600
F1052       F  0.88049671  0.69475663  0.17549875    -0.19200
H1053       H  0.86548146  0.66205493  0.13358345     0.16400
F1054       F  0.94587237  0.60314946  0.13294381    -0.22900
H1055       H  0.96028461  0.63635048  0.17668759     0.18200
C1056       C  0.93776432  0.67610648  0.22988220     0.26200
C1057       C  0.94506751  0.69606606  0.25199311    -0.11500
C1058       C  0.95023690  0.72548361  0.24517687    -0.25500
C1059       C  0.94671493  0.73489510  0.21614717     0.37100
C1060       C  0.93904000  0.71513416  0.19425863    -0.27100
F1061       F  0.93366988  0.64768471  0.23684718    -0.19300
H1062       H  0.94846717  0.68826993  0.27411274     0.16400
F1063       F  0.95232030  0.76295323  0.20873889    -0.23000
H1064       H  0.93655412  0.72287956  0.17197609     0.18300
C1065       C  0.85475352  0.48177078  0.87762287    -0.27000
C1066       C  0.82683654  0.46995565  0.87483503     0.06600
C1067       C  0.81675109  0.45121026  0.89663304     0.26200
C1068       C  0.83491916  0.44275626  0.91957262    -0.11500
C1069       C  0.86371473  0.45356956  0.92248541    -0.25400
C1070       C  0.87258769  0.47456108  0.90148281     0.37000
C1071       C  0.80854194  0.47634514  0.84880257     0.06600
F1072       F  0.79024489  0.43855569  0.89413613    -0.19200
H1073       H  0.82680507  0.42504876  0.93248339     0.16400
F1074       F  0.90000041  0.48534153  0.90185974    -0.22900
H1075       H  0.86310821  0.49607803  0.86080284     0.18200
C1076       C  0.81855352  0.47030497  0.82031714     0.26200
C1077       C  0.80168070  0.47795590  0.79595187    -0.11500
C1078       C  0.77484018  0.49210160  0.79963755    -0.25500
C1079       C  0.76396886  0.49626337  0.82805135     0.37100
C1080       C  0.78068917  0.48839903  0.85240222    -0.27100
F1081       F  0.84482231  0.45749141  0.81607357    -0.19300
H1082       H  0.81036865  0.47458043  0.77416926     0.16400
F1083       F  0.73801620  0.50970950  0.83219327    -0.23000
H1084       H  0.77238155  0.49283009  0.87415829     0.18300
C1085       C  0.00399107  0.73299408  0.87036213    -0.27000
C1086       C  0.00445919  0.70358179  0.86178216     0.06600
C1087       C  0.99786023  0.69660764  0.83248843     0.26200
C1088       C  0.99061948  0.71872040  0.81250355    -0.11500
C1089       C  0.98983939  0.74799622  0.82145765    -0.25400
C1090       C  0.99713441  0.75495216  0.85040174     0.37000
C1091       C  0.01499417  0.68111270  0.88280235     0.06600
F1092       F  0.99872244  0.66856523  0.82312953    -0.19200
H1093       H  0.98441910  0.71293454  0.79038864     0.16400
F1094       F  0.99619813  0.78302256  0.85968390    -0.22900
H1095       H  0.00888826  0.73900033  0.89275337     0.18200
C1096       C  0.04113114  0.68589470  0.89752193     0.26200
C1097       C  0.05308167  0.66451357  0.91528029    -0.11500
C1098       C  0.04001038  0.63671315  0.91891580    -0.25500
C1099       C  0.01245574  0.63276052  0.90545560     0.37100
C1100       C  0.00029752  0.65467865  0.88754352    -0.27100
F1101       F  0.05669235  0.71057422  0.89288683    -0.19300
H1102       H  0.07405149  0.66990702  0.92400216     0.16400
F1103       F  0.99887610  0.60660281  0.90674437    -0.23000
H1104       H  0.97991291  0.65056020  0.87651489     0.18300
C1105       C  0.81054990  0.63811101  0.94321861    -0.27000
C1106       C  0.81759689  0.65917816  0.96383140     0.06600
C1107       C  0.84537928  0.65902298  0.97619418     0.26200
C1108       C  0.86536054  0.63722414  0.96880061    -0.11500
C1109       C  0.85971978  0.61695857  0.94608067    -0.25400
C1110       C  0.83142524  0.61855851  0.93305597     0.37000
C1111       C  0.79618624  0.68219662  0.97056031     0.06600
F1112       F  0.85393464  0.68103979  0.99390531    -0.19200
H1113       H  0.88677056  0.63851718  0.97845044     0.16400
F1114       F  0.82407390  0.60488347  0.90799416    -0.22900
H1115       H  0.78948728  0.63876295  0.93264192     0.18200
C1116       C  0.80114162  0.71125385  0.96230023     0.26200
C1117       C  0.78075681  0.73284788  0.96922497    -0.11500
C1118       C  0.75540602  0.72567204  0.98462783    -0.25500
C1119       C  0.74964327  0.69635245  0.99118672     0.37100
C1120       C  0.76992376  0.67479043  0.98415781    -0.27100
F1121       F  0.82588132  0.71875047  0.94803476    -0.19300
H1122       H  0.78561779  0.75540152  0.96434921     0.16400
F1123       F  0.72533297  0.68893395  0.00623763    -0.23000
H1124       H  0.76560559  0.65239645  0.99019386     0.18300
C1125       C  0.92516480  0.67572234  0.90541324    -0.27000
C1126       C  0.90778010  0.68267440  0.88114933     0.06600
C1127       C  0.88535663  0.66388630  0.87342643     0.26200
C1128       C  0.88096950  0.63847143  0.88895893    -0.11500
C1129       C  0.89826044  0.63023317  0.91339245    -0.25400
C1130       C  0.92031082  0.65023923  0.92179262     0.37000
C1131       C  0.91363853  0.70850099  0.86271654     0.06600
F1132       F  0.86704309  0.67031385  0.85101447    -0.19200
H1133       H  0.86318151  0.62513772  0.88161508     0.16400
F1134       F  0.93631029  0.64708397  0.94630399    -0.22900
H1135       H  0.94262116  0.69018365  0.91182825     0.18200
C1136       C  0.91805529  0.73631038  0.87486879     0.26200
C1137       C  0.92560064  0.75970789  0.85673691    -0.11500
C1138       C  0.92830252  0.75558613  0.82642819    -0.25500
C1139       C  0.92164929  0.72845324  0.81415785     0.37100
C1140       C  0.91493700  0.70505130  0.83218781    -0.27100
F1141       F  0.91563108  0.74068654  0.90415350    -0.19300
H1142       H  0.93105343  0.78051843  0.86644415     0.16400
F1143       F  0.92457746  0.72392848  0.78491875    -0.23000
H1144       H  0.91194883  0.68382908  0.82228552     0.18300
C1145       C  0.88137496  0.56655517  0.85666389    -0.27000
C1146       C  0.85271265  0.55641611  0.85862298     0.06600
C1147       C  0.84153468  0.55027027  0.88674926     0.26200
C1148       C  0.85632556  0.55980638  0.91187917    -0.11500
C1149       C  0.88056216  0.57815793  0.90874554    -0.25400
C1150       C  0.89585049  0.57612521  0.88185205     0.37000
C1151       C  0.83376838  0.55507365  0.83207328     0.06600
F1152       F  0.81500927  0.53784006  0.88988466    -0.19200
H1153       H  0.84577394  0.55762509  0.93295821     0.16400
F1154       F  0.92284288  0.58761515  0.87898133    -0.22900
H1155       H  0.89158870  0.56973465  0.83556386     0.18200
C1156       C  0.84314662  0.54230496  0.80562709     0.26200
C1157       C  0.82388981  0.53959372  0.78191446    -0.11500
C1158       C  0.79495205  0.54917932  0.78430664    -0.25500
C1159       C  0.78654042  0.56445404  0.80956019     0.37100
C1160       C  0.80575366  0.56737655  0.83310828    -0.27100
F1161       F  0.87000324  0.53026707  0.80347803    -0.19300
H1162       H  0.83068810  0.52740596  0.76279419     0.16400
F1163       F  0.75879535  0.57406858  0.81253537    -0.23000
H1164       H  0.79831478  0.57842362  0.85268790     0.18300
C1165       C  0.11898349  0.55658271  0.80658054    -0.27000
C1166       C  0.12666365  0.56212586  0.83584066     0.06600
C1167       C  0.15631599  0.56186272  0.84357767     0.26200
C1168       C  0.17748592  0.55450207  0.82289753    -0.11500
C1169       C  0.16954827  0.54762690  0.79415317    -0.25400
C1170       C  0.14026175  0.54971019  0.78581266     0.37000
C1171       C  0.10401434  0.56900983  0.85807302     0.06600
F1172       F  0.16486656  0.56854713  0.87119462    -0.19200
H1173       H  0.19996448  0.55269219  0.82967222     0.16400
F1174       F  0.13210929  0.54303641  0.75805345    -0.22900
H1175       H  0.09639535  0.55661578  0.79998471     0.18200
C1176       C  0.08276305  0.59010635  0.85247276     0.26200
C1177       C  0.06506441  0.60039110  0.87504714    -0.11500
C1178       C  0.06844069  0.59077853  0.90450983    -0.25500
C1179       C  0.08789513  0.56703071  0.90896015     0.37100
C1180       C  0.10513280  0.55643613  0.88601288    -0.27100
F1181       F  0.08104838  0.60319729  0.82586117    -0.19300
H1182       H  0.05113547  0.61826525  0.86905382     0.16400
F1183       F  0.09453470  0.55737125  0.93614292    -0.23000
H1184       H  0.12107761  0.53967967  0.89073084     0.18300
C1185       C  0.16695387  0.47469807  0.84769479    -0.27000
C1186       C  0.13673013  0.47230597  0.84434118     0.06600
C1187       C  0.12465715  0.47527935  0.81618528     0.26200
C1188       C  0.14257766  0.48150276  0.79213365    -0.11500
C1189       C  0.17259773  0.48529264  0.79595498    -0.25400
C1190       C  0.18472399  0.48102471  0.82380151     0.37000
C1191       C  0.11858121  0.46532866  0.87028943     0.06600
F1192       F  0.09562063  0.47251391  0.81199457    -0.19200
H1193       H  0.13283785  0.48520018  0.77088054     0.16400
F1194       F  0.21355417  0.48522735  0.82826727    -0.22900
H1195       H  0.17675767  0.47254797  0.86913792     0.18200
C1196       C  0.12615807  0.44164576  0.88785221     0.26200
C1197       C  0.10926373  0.43419256  0.91181772    -0.11500
C1198       C  0.08429935  0.45032957  0.92030477    -0.25500
C1199       C  0.07695762  0.47458745  0.90238942     0.37100
C1200       C  0.09390386  0.48180068  0.87775733    -0.27100
F1201       F  0.14896651  0.42422635  0.88068933    -0.19300
H1202       H  0.11528976  0.41420788  0.92255234     0.16400
F1203       F  0.05239773  0.49024570  0.90716938    -0.23000
H1204       H  0.08744543  0.50002414  0.86418740     0.18300
C1205       C  0.80805953  0.57766052  0.21403650    -0.27000
C1206       C  0.79970430  0.57590435  0.18454132     0.06600
C1207       C  0.77038806  0.57026795  0.17776515     0.26200
C1208       C  0.75022961  0.56531178  0.20011709    -0.11500
C1209       C  0.75907186  0.56534193  0.22946146    -0.25400
C1210       C  0.78791959  0.57245615  0.23633963     0.37000
C1211       C  0.82092485  0.58249432  0.16101661     0.06600
F1212       F  0.76156220  0.56813806  0.14949134    -0.19200
H1213       H  0.72821147  0.55925521  0.19446203     0.16400
F1214       F  0.79694195  0.57251230  0.26462091    -0.22900
H1215       H  0.83025674  0.58286922  0.21980140     0.18200
C1216       C  0.84869991  0.56973459  0.15986462     0.26200
C1217       C  0.86875841  0.57834560  0.13838838    -0.11500
C1218       C  0.86247603  0.60120879  0.11859592    -0.25500
C1219       C  0.83423470  0.61409738  0.12079879     0.37100
C1220       C  0.81388220  0.60401260  0.14078447    -0.27100
F1221       F  0.85680600  0.54961000  0.18003977    -0.19300
H1222       H  0.89028883  0.56881005  0.13886903     0.16400
F1223       F  0.82665782  0.63906176  0.10707358    -0.23000
H1224       H  0.79313123  0.61512791  0.14219428     0.18300
C1225       C  0.78453005  0.48974135  0.19122177    -0.27000
C1226       C  0.81346672  0.48855788  0.20088816     0.06600
C1227       C  0.81931393  0.49387704  0.23073693     0.26200
C1228       C  0.79684328  0.50190869  0.24988911    -0.11500
C1229       C  0.76821127  0.50446939  0.23972681    -0.25400
C1230       C  0.76211171  0.49746910  0.21041876     0.37000
C1231       C  0.83696849  0.48004557  0.18006333     0.06600
F1232       F  0.84689933  0.49258219  0.24110943    -0.19200
H1233       H  0.80200991  0.50771013  0.27227512     0.16400
F1234       F  0.73462001  0.49982342  0.19997083    -0.22900
H1235       H  0.77926714  0.48481972  0.16865303     0.18200
C1236       C  0.83951005  0.49263659  0.15213932     0.26200
C1237       C  0.85942630  0.48162072  0.13158180    -0.11500
C1238       C  0.87593516  0.45605852  0.13714253    -0.25500
C1239       C  0.87350434  0.44435536  0.16623331     0.37100
C1240       C  0.85514094  0.45681764  0.18709482    -0.27100
F1241       F  0.82129409  0.51438936  0.14388859    -0.19300
H1242       H  0.85853551  0.49090416  0.10993187     0.16400
F1243       F  0.88557860  0.41884622  0.17468528    -0.23000
H1244       H  0.85308566  0.44625107  0.20821287     0.18300
C1245       C  0.02513440  0.20113667  0.71791958    -0.27000
C1246       C  0.02605515  0.20173880  0.68714163     0.06600
C1247       C  0.02058799  0.22828412  0.67261285     0.26200
C1248       C  0.01239684  0.25295832  0.68856349    -0.11500
C1249       C  0.01012324  0.25170794  0.71913532    -0.25400
C1250       C  0.01784916  0.22603106  0.73382879     0.37000
C1251       C  0.03265477  0.17463552  0.67059686     0.06600
F1252       F  0.02270462  0.23031825  0.64304431    -0.19200
H1253       H  0.00631305  0.27265781  0.67698862     0.16400
F1254       F  0.01550275  0.22424895  0.76340770    -0.22900
H1255       H  0.02884280  0.18102034  0.72972309     0.18200
C1256       C  0.05522620  0.15626482  0.67960267     0.26200
C1257       C  0.06233410  0.13166401  0.66336008    -0.11500
C1258       C  0.04776610  0.12438302  0.63698991    -0.25500
C1259       C  0.02443955  0.14280561  0.62854259     0.37100
C1260       C  0.01681452  0.16712515  0.64547041    -0.27100
F1261       F  0.07212294  0.16320467  0.70292757    -0.19300
H1262       H  0.08114655  0.11971545  0.67067713     0.16400
F1263       F  0.01008860  0.13883004  0.60294696    -0.23000
H1264       H  0.99901709  0.18076052  0.63829844     0.18300
C1265       C  0.94477033  0.19932730  0.70611226    -0.27000
C1266       C  0.93730852  0.20422217  0.67655153     0.06600
C1267       C  0.93407946  0.23345165  0.66722356     0.26200
C1268       C  0.94003073  0.25663220  0.68642716    -0.11500
C1269       C  0.94796948  0.25128532  0.71558856    -0.25400
C1270       C  0.94885175  0.22240938  0.72555891     0.37000
C1271       C  0.93035244  0.17874468  0.65702555     0.06600
F1272       F  0.92484383  0.23987449  0.63978693    -0.19200
H1273       H  0.93944996  0.27875702  0.67825786     0.16400
F1274       F  0.95586700  0.21647670  0.75380081    -0.22900
H1275       H  0.94803642  0.17751000  0.71440529     0.18200
C1276       C  0.93599347  0.17822338  0.62653520     0.26200
C1277       C  0.92451229  0.15583479  0.60885520    -0.11500
C1278       C  0.90591646  0.13464318  0.62093322    -0.25500
C1279       C  0.90711227  0.13148539  0.65182500     0.37100
C1280       C  0.91745182  0.15392806  0.66932531    -0.27100
F1281       F  0.95227236  0.19922067  0.61367461    -0.19300
H1282       H  0.92813553  0.15650516  0.58541962     0.16400
F1283       F  0.89735627  0.10717785  0.66557266    -0.23000
H1284       H  0.91407871  0.15198332  0.69266484     0.18300
C1285       C  0.92496441  0.33731137  0.83932019    -0.27000
C1286       C  0.92877247  0.36770562  0.83835149     0.06600
C1287       C  0.93972975  0.38033318  0.81257402     0.26200
C1288       C  0.94725079  0.36271015  0.78863343    -0.11500
C1289       C  0.94455899  0.33222615  0.79019343    -0.25400
C1290       C  0.93265379  0.31975008  0.81551989     0.37000
C1291       C  0.91966539  0.38578359  0.86384529     0.06600
F1292       F  0.94334706  0.40959103  0.81058852    -0.19200
H1293       H  0.95684633  0.37267294  0.76945163     0.16400
F1294       F  0.93048700  0.29038618  0.81805831    -0.22900
H1295       H  0.91669891  0.32702757  0.85895885     0.18200
C1296       C  0.89203061  0.38189161  0.87564865     0.26200
C1297       C  0.88335416  0.39774070  0.89992712    -0.11500
C1298       C  0.90155161  0.41861785  0.91369604    -0.25500
C1299       C  0.92942122  0.42283933  0.90150214     0.37100
C1300       C  0.93817383  0.40639285  0.87690824    -0.27100
F1301       F  0.87292374  0.36307038  0.86329862    -0.19300
H1302       H  0.86181314  0.39342051  0.90822008     0.16400
F1303       F  0.94784281  0.44315288  0.91229406    -0.23000
H1304       H  0.95948615  0.40956389  0.86803466     0.18300
C1305       C  0.05015758  0.37083382  0.88779185    -0.27000
C1306       C  0.03090532  0.38273894  0.86758911     0.06600
C1307       C  0.01998506  0.41091935  0.87260877     0.26200
C1308       C  0.02656194  0.42571317  0.89868894    -0.11500
C1309       C  0.04665204  0.41422193  0.91908669    -0.25400
C1310       C  0.05910550  0.38654062  0.91204860     0.37000
C1311       C  0.02265832  0.36481520  0.84189780     0.06600
F1312       F  0.00412870  0.42478815  0.85184288    -0.19200
H1313       H  0.01781814  0.44739384  0.90166800     0.16400
F1314       F  0.08214770  0.37513670  0.92639870    -0.22900
H1315       H  0.06006028  0.34977593  0.88366439     0.18200
C1316       C  0.02424286  0.37547114  0.81303000     0.26200
C1317       C  0.01611690  0.35767747  0.78951680    -0.11500
C1318       C  0.00660165  0.32911997  0.79453840    -0.25500
C1319       C  0.00664015  0.31795075  0.82308268     0.37100
C1320       C  0.01438851  0.33570620  0.84650567    -0.27100
F1321       F  0.03381267  0.40283830  0.80749216    -0.19300
H1322       H  0.01604255  0.36651847  0.76753665     0.16400
F1323       F  0.99769113  0.29029298  0.82838480    -0.23000
H1324       H  0.01331608  0.32685753  0.86846553     0.18300
C1325       C  0.63531013  0.21752852  0.03408931    -0.27000
C1326       C  0.63850749  0.20227572  0.06060159     0.06600
C1327       C  0.66007406  0.21176777  0.08050235     0.26200
C1328       C  0.68063979  0.23239147  0.07194989    -0.11500
C1329       C  0.67920350  0.24498847  0.04412588    -0.25400
C1330       C  0.65477477  0.23958077  0.02650035     0.37000
C1331       C  0.62096644  0.17562796  0.06686632     0.06600
F1332       F  0.66215455  0.20027481  0.10780991    -0.19200
H1333       H  0.69882965  0.23697475  0.08625741     0.16400
F1334       F  0.65151693  0.25349776  0.00049801    -0.22900
H1335       H  0.61906287  0.21129593  0.01822118     0.18200
C1336       C  0.59161551  0.17293612  0.05885261     0.26200
C1337       C  0.57545608  0.14877366  0.06795745    -0.11500
C1338       C  0.58690915  0.12805786  0.08791184    -0.25500
C1339       C  0.61734799  0.12994101  0.09360746     0.37100
C1340       C  0.63392076  0.15235002  0.08173541    -0.27100
F1341       F  0.57763331  0.19460154  0.04437485    -0.19300
H1342       H  0.55252241  0.14871510  0.06283434     0.16400
F1343       F  0.63141579  0.11372844  0.11375172    -0.23000
H1344       H  0.65693803  0.15263871  0.08652219     0.18300
C1345       C  0.67408468  0.19491529  0.95952101    -0.27000
C1346       C  0.67014891  0.17071215  0.97808505     0.06600
C1347       C  0.68662836  0.16900297  0.00391670     0.26200
C1348       C  0.70524475  0.19187400  0.01174688    -0.11500
C1349       C  0.70741519  0.21702136  0.99420201    -0.25400
C1350       C  0.69268502  0.21771529  0.96731961     0.37000
C1351       C  0.64741586  0.14874092  0.97087953     0.06600
F1352       F  0.68397853  0.14573671  0.02202976    -0.19200
H1353       H  0.71642237  0.19092588  0.03258383     0.16400
F1354       F  0.69386870  0.24179006  0.95011509    -0.22900
H1355       H  0.66142650  0.19699734  0.93965313     0.18200
C1356       C  0.64538219  0.13780095  0.94242429     0.26200
C1357       C  0.62034574  0.12358212  0.93324317    -0.11500
C1358       C  0.59635661  0.11858544  0.95232021    -0.25500
C1359       C  0.60000016  0.12711794  0.98194333     0.37100
C1360       C  0.62523815  0.14191476  0.99092090    -0.27100
F1361       F  0.66676882  0.14290434  0.92260176    -0.19300
H1362       H  0.61914514  0.11935031  0.91004853     0.16400
F1363       F  0.57797638  0.12436744  0.00147351    -0.23000
H1364       H  0.62641017  0.15008206  0.01303034     0.18300
C1365       C  0.80084595  0.33747948  0.07260169    -0.27000
C1366       C  0.79544166  0.36593167  0.06284316     0.06600
C1367       C  0.77015428  0.37164354  0.04654051     0.26200
C1368       C  0.75172518  0.34867772  0.03843076    -0.11500
C1369       C  0.75800984  0.31995556  0.04705298    -0.25400
C1370       C  0.78215731  0.31473051  0.06508933     0.37000
C1371       C  0.81643829  0.38919288  0.07027911     0.06600
F1372       F  0.76401723  0.39911302  0.03744747    -0.19200
H1373       H  0.73341863  0.35303127  0.02419228     0.16400
F1374       F  0.78888889  0.28717624  0.07348060    -0.22900
H1375       H  0.81999387  0.33280224  0.08555747     0.18200
C1376       C  0.81055032  0.40832285  0.09324393     0.26200
C1377       C  0.83262283  0.42571641  0.10473016    -0.11500
C1378       C  0.86132980  0.42556786  0.09292046    -0.25500
C1379       C  0.86581084  0.40846780  0.06745370     0.37100
C1380       C  0.84406262  0.38960739  0.05736351    -0.27100
F1381       F  0.78418106  0.40805361  0.10658943    -0.19300
H1382       H  0.82695107  0.43726364  0.12443783     0.16400
F1383       F  0.89250195  0.40648757  0.05503750    -0.23000
H1384       H  0.84942216  0.37395212  0.04058150     0.18300
C1385       C  0.79621154  0.34297436  0.97029447    -0.27000
C1386       C  0.82322568  0.34123037  0.98447623     0.06600
C1387       C  0.82981744  0.31627466  0.00111475     0.26200
C1388       C  0.80888800  0.29452162  0.00498229    -0.11500
C1389       C  0.78098601  0.29777979  0.99301862    -0.25400
C1390       C  0.77522696  0.32148851  0.97454705     0.37000
C1391       C  0.84371816  0.36598087  0.98195173     0.06600
F1392       F  0.85536634  0.31412782  0.01575598    -0.19200
H1393       H  0.81344554  0.27663122  0.01974458     0.16400
F1394       F  0.74829563  0.32532767  0.96309195    -0.22900
H1395       H  0.79090033  0.36171963  0.95690371     0.18200
C1396       C  0.87241135  0.36170860  0.97257417     0.26200
C1397       C  0.88894460  0.38556575  0.96379092    -0.11500
C1398       C  0.87629358  0.41367837  0.96210081    -0.25500
C1399       C  0.85114452  0.41850619  0.97899572     0.37100
C1400       C  0.83401946  0.39464278  0.98712587    -0.27100
F1401       F  0.88337632  0.33451824  0.96868346    -0.19300
H1402       H  0.91025814  0.38136184  0.95464943     0.16400
F1403       F  0.84070284  0.44586257  0.98317714    -0.23000
H1404       H  0.81267861  0.39849021  0.99635594     0.18300
C1405       C  0.09707717  0.68592853  0.08458545    -0.27000
C1406       C  0.11774007  0.67689653  0.06408918     0.06600
C1407       C  0.11585470  0.64840354  0.05296983     0.26200
C1408       C  0.09462369  0.62915355  0.06352509    -0.11500
C1409       C  0.07613000  0.63685323  0.08717712    -0.25400
C1410       C  0.07680412  0.66666892  0.09621993     0.37000
C1411       C  0.14192127  0.69706508  0.05638007     0.06600
F1412       F  0.13535345  0.63862724  0.03293169    -0.19200
H1413       H  0.09513095  0.60691067  0.05566068     0.16400
F1414       F  0.06184722  0.67726088  0.11929502    -0.22900
H1415       H  0.09831561  0.70754592  0.09401684     0.18200
C1416       C  0.13629681  0.72681435  0.05124811     0.26200
C1417       C  0.15901269  0.74603146  0.04548678    -0.11500
C1418       C  0.18769864  0.73597289  0.04356001    -0.25500
C1419       C  0.19366904  0.70654033  0.04936069     0.37100
C1420       C  0.17096273  0.68731105  0.05601117    -0.27100
F1421       F  0.10865948  0.73710464  0.05015421    -0.19300
H1422       H  0.15395859  0.76845528  0.04007141     0.16400
F1423       F  0.22116574  0.69613639  0.04679928    -0.23000
H1424       H  0.17607830  0.66473694  0.06059031     0.18300
C1425       C  0.10395496  0.66063919  0.97982162    -0.27000
C1426       C  0.12881396  0.66481370  0.96250550     0.06600
C1427       C  0.13323292  0.64664367  0.93835666     0.26200
C1428       C  0.11225102  0.62631261  0.93036868    -0.11500
C1429       C  0.08583664  0.62298554  0.94630830    -0.25400
C1430       C  0.08301830  0.63969144  0.97233308     0.37000
C1431       C  0.14937353  0.68904565  0.96844892     0.06600
F1432       F  0.15648601  0.65062732  0.92049658    -0.19200
H1433       H  0.11600512  0.61573237  0.90963946     0.16400
F1434       F  0.05840350  0.63857626  0.98859442    -0.22900
H1435       H  0.10012584  0.67453793  0.99858061     0.18200
C1436       C  0.13952942  0.71803288  0.97061360     0.26200
C1437       C  0.15911748  0.74058588  0.97661038    -0.11500
C1438       C  0.18868893  0.73453179  0.98096194    -0.25500
C1439       C  0.19875746  0.70586593  0.97718918     0.37100
C1440       C  0.17926347  0.68337177  0.97099288    -0.27100
F1441       F  0.11093245  0.72447267  0.96737070    -0.19300
H1442       H  0.15092445  0.76248285  0.97990204     0.16400
F1443       F  0.22719031  0.69935993  0.98161311    -0.23000
H1444       H  0.18738235  0.66128407  0.96921966     0.18300
C1445       C  0.28492297  0.85261563  0.06709691    -0.27000
C1446       C  0.31239533  0.85193500  0.05321476     0.06600
C1447       C  0.31944826  0.82697632  0.03656401     0.26200
C1448       C  0.29880969  0.80515446  0.03180156    -0.11500
C1449       C  0.27031855  0.80795564  0.04246228    -0.25400
C1450       C  0.26395708  0.83110837  0.06150750     0.37000
C1451       C  0.33317163  0.87708065  0.05641081     0.06600
F1452       F  0.34522647  0.82461421  0.02244967    -0.19200
H1453       H  0.30419004  0.78743237  0.01710834     0.16400
F1454       F  0.23675516  0.83439199  0.07249517    -0.22900
H1455       H  0.27915848  0.87040140  0.08150455     0.18200
C1456       C  0.32316073  0.90614740  0.05889902     0.26200
C1457       C  0.34171045  0.92808535  0.06923317    -0.11500
C1458       C  0.36961974  0.92075532  0.07946110    -0.25500
C1459       C  0.38176540  0.89460828  0.06857620     0.37100
C1460       C  0.36338167  0.87242058  0.05863044    -0.27100
F1461       F  0.29498881  0.91310985  0.05378675    -0.19300
H1462       H  0.33272228  0.94946695  0.07351351     0.16400
F1463       F  0.41030414  0.88840373  0.07270442    -0.23000
H1464       H  0.37273274  0.85102949  0.05580689     0.18300
C1465       C  0.30129418  0.83445983  0.95711227    -0.27000
C1466       C  0.30226561  0.86052339  0.97372804     0.06600
C1467       C  0.27674902  0.86800935  0.98948253     0.26200
C1468       C  0.25431528  0.84785816  0.99266540    -0.11500
C1469       C  0.25719762  0.81955718  0.98159757    -0.25400
C1470       C  0.27964169  0.81366845  0.96184573     0.37000
C1471       C  0.32986044  0.87843739  0.97450554     0.06600
F1472       F  0.27360691  0.89348309  0.00393314    -0.19200
H1473       H  0.23635639  0.85311177  0.00708188     0.16400
F1474       F  0.28235640  0.78687705  0.94958873    -0.22900
H1475       H  0.31801815  0.82914117  0.94142167     0.18200
C1476       C  0.35687943  0.86603134  0.96651473     0.26200
C1477       C  0.38004321  0.88375614  0.95824325    -0.11500
C1478       C  0.37784290  0.91443438  0.95967690    -0.25500
C1479       C  0.35458463  0.92556499  0.97668961     0.37100
C1480       C  0.33019156  0.90824509  0.98211942    -0.27100
F1481       F  0.36093229  0.83678349  0.96508987    -0.19300
H1482       H  0.39816751  0.87260900  0.94863736     0.16400
F1483       F  0.35237022  0.95449924  0.98227283    -0.23000
H1484       H  0.31126874  0.91956519  0.98998509     0.18300
C1485       C  0.19423196  0.48057201  0.16097573    -0.27000
C1486       C  0.16783649  0.46800903  0.16976823     0.06600
C1487       C  0.16343134  0.46183895  0.19968411     0.26200
C1488       C  0.18451587  0.46882900  0.22032430    -0.11500
C1489       C  0.21002472  0.48297291  0.21186605    -0.25400
C1490       C  0.21529276  0.48797967  0.18192965     0.37000
C1491       C  0.14477906  0.46020047  0.14845834     0.06600
F1492       F  0.13782746  0.45071026  0.20925632    -0.19200
H1493       H  0.17978967  0.46556628  0.24333512     0.16400
F1494       F  0.23982639  0.50186263  0.17330170    -0.22900
H1495       H  0.19827304  0.48509950  0.13807709     0.18200
C1496       C  0.13194407  0.48044214  0.12922278     0.26200
C1497       C  0.10567019  0.47377154  0.11469902    -0.11500
C1498       C  0.09275472  0.44599687  0.11781958    -0.25500
C1499       C  0.10816253  0.42517952  0.13516271     0.37100
C1500       C  0.13327233  0.43230903  0.15003872    -0.27100
F1501       F  0.14446211  0.50679927  0.12496693    -0.19300
H1502       H  0.09624018  0.49030558  0.10098539     0.16400
F1503       F  0.09820449  0.39764379  0.13895522    -0.23000
H1504       H  0.14335903  0.41596620  0.16383488     0.18300
C1505       C  0.14345086  0.54388903  0.20535485    -0.27000
C1506       C  0.15313535  0.55663444  0.17905379     0.06600
C1507       C  0.18320645  0.56183158  0.17575843     0.26200
C1508       C  0.20266343  0.55500752  0.19818899    -0.11500
C1509       C  0.19309360  0.54168397  0.22399271    -0.25400
C1510       C  0.16324525  0.53612296  0.22746083     0.37000
C1511       C  0.13208920  0.56736305  0.15642475     0.06600
F1512       F  0.19409620  0.57262998  0.15036295    -0.19200
H1513       H  0.22568853  0.55836721  0.19460907     0.16400
F1514       F  0.15345563  0.52197051  0.25159437    -0.22900
H1515       H  0.12054461  0.54006787  0.20896979     0.18200
C1516       C  0.10679961  0.55216424  0.14801459     0.26200
C1517       C  0.08665174  0.56475186  0.12841319    -0.11500
C1518       C  0.09011105  0.59366841  0.11795638    -0.25500
C1519       C  0.11618526  0.60823078  0.12666043     0.37100
C1520       C  0.13650013  0.59504772  0.14475997    -0.27100
F1521       F  0.10039677  0.52601447  0.16015372    -0.19300
H1522       H  0.06664264  0.55312121  0.12451319     0.16400
F1523       F  0.12143307  0.63664511  0.12103917    -0.23000
H1524       H  0.15477394  0.60805112  0.15182593     0.18300
C1525       C  0.14647769  0.21907297  0.57641175    -0.27000
C1526       C  0.15075318  0.18887298  0.57563971     0.06600
C1527       C  0.17810470  0.17768328  0.56751079     0.26200
C1528       C  0.20050006  0.19644806  0.55931709    -0.11500
C1529       C  0.19598887  0.22657329  0.55935859    -0.25400
C1530       C  0.16903305  0.23787149  0.56854339     0.37000
C1531       C  0.12760095  0.16884054  0.58526241     0.06600
F1532       F  0.18282561  0.14850517  0.56670121    -0.19200
H1533       H  0.22091332  0.18748010  0.55165077     0.16400
F1534       F  0.16409146  0.26703521  0.56818285    -0.22900
H1535       H  0.12569737  0.22802237  0.58305479     0.18200
C1536       C  0.13253199  0.15146672  0.60970142     0.26200
C1537       C  0.11218538  0.13094604  0.61801134    -0.11500
C1538       C  0.08656232  0.12553240  0.60149319    -0.25500
C1539       C  0.08098292  0.14446555  0.57772418     0.37100
C1540       C  0.10111364  0.16629316  0.57018555    -0.27100
F1541       F  0.15683366  0.15493966  0.62618748    -0.19300
H1542       H  0.11690338  0.11921861  0.63791685     0.16400
F1543       F  0.05589879  0.14263168  0.56234273    -0.23000
H1544       H  0.09610496  0.18111963  0.55246679     0.18300
C1545       C  0.18387544  0.18778789  0.47570193    -0.27000
C1546       C  0.15385259  0.19031182  0.48048659     0.06600
C1547       C  0.14275954  0.21641767  0.49216995     0.26200
C1548       C  0.16156416  0.23907248  0.49999604    -0.11500
C1549       C  0.19173808  0.23569548  0.49711531    -0.25400
C1550       C  0.20270149  0.21014527  0.48417029     0.37000
C1551       C  0.13400508  0.16652513  0.47144462     0.06600
F1552       F  0.11376896  0.21982775  0.49634324    -0.19200
H1553       H  0.15273815  0.25843431  0.51024042     0.16400
F1554       F  0.23180553  0.20600584  0.48170695    -0.22900
H1555       H  0.19280265  0.16802820  0.46631815     0.18200
C1556       C  0.13229551  0.15882455  0.44204738     0.26200
C1557       C  0.11114726  0.13945033  0.43263871    -0.11500
C1558       C  0.09044076  0.12659429  0.45199914    -0.25500
C1559       C  0.09291526  0.13423608  0.48200654     0.37100
C1560       C  0.11493842  0.15332833  0.49137571    -0.27100
F1561       F  0.14950940  0.17198817  0.42186045    -0.19300
H1562       H  0.10972247  0.13662628  0.40922592     0.16400
F1563       F  0.07249999  0.12657138  0.50185105    -0.23000
H1564       H  0.11639258  0.15901538  0.51424013     0.18300
C1565       C  0.51732405  0.17598201  0.14261382    -0.27000
C1566       C  0.53832022  0.18911120  0.16046621     0.06600
C1567       C  0.56627446  0.17755845  0.16104818     0.26200
C1568       C  0.57313716  0.15346746  0.14394807    -0.11500
C1569       C  0.55231106  0.13909693  0.12596963    -0.25400
C1570       C  0.52376661  0.15086304  0.12609568     0.37000
C1571       C  0.53050710  0.21328381  0.18040050     0.06600
F1572       F  0.58704218  0.18951596  0.17835303    -0.19200
H1573       H  0.59513986  0.14534320  0.14545992     0.16400
F1574       F  0.50152991  0.13836658  0.11164306    -0.22900
H1575       H  0.49558029  0.18486264  0.14214757     0.18200
C1576       C  0.52524931  0.24150964  0.16977168     0.26200
C1577       C  0.51607806  0.26357870  0.18895269    -0.11500
C1578       C  0.51118120  0.25740632  0.21869387    -0.25500
C1579       C  0.51820888  0.22964452  0.22950381     0.37100
C1580       C  0.52798204  0.20784470  0.21051099    -0.27100
F1581       F  0.52805661  0.24739192  0.14078828    -0.19300
H1582       H  0.51074797  0.28485616  0.18025063     0.16400
F1583       F  0.51355297  0.22308802  0.25809692    -0.23000
H1584       H  0.53230766  0.18626327  0.21907481     0.18300
C1585       C  0.44328945  0.23487815  0.16632781    -0.27000
C1586       C  0.43761755  0.20636087  0.17577951     0.06600
C1587       C  0.43661990  0.20052701  0.20602071     0.26200
C1588       C  0.44261354  0.22262895  0.22628355    -0.11500
C1589       C  0.44910509  0.25088009  0.21666305    -0.25400
C1590       C  0.44847582  0.25705429  0.18654438     0.37000
C1591       C  0.42969991  0.18374637  0.15406727     0.06600
F1592       F  0.42938702  0.17364137  0.21593235    -0.19200
H1593       H  0.44315147  0.21751925  0.24942471     0.16400
F1594       F  0.45425859  0.28431297  0.17666642    -0.22900
H1595       H  0.44374414  0.23995004  0.14316292     0.18200
C1596       C  0.40653059  0.18898162  0.13508448     0.26200
C1597       C  0.39568770  0.16675544  0.11770147    -0.11500
C1598       C  0.40765964  0.13818891  0.11823234    -0.25500
C1599       C  0.43349045  0.13422445  0.13476739     0.37100
C1600       C  0.44366715  0.15650945  0.15319774    -0.27100
F1601       F  0.39235730  0.21496411  0.13536657    -0.19300
H1602       H  0.37614805  0.17222679  0.10596447     0.16400
F1603       F  0.44607424  0.10753682  0.13679064    -0.23000
H1604       H  0.46172359  0.15207652  0.16772474     0.18300
C1605       C  0.01093442  0.37290681  0.22412957    -0.27000
C1606       C  0.01964523  0.36527732  0.19557736     0.06600
C1607       C  0.02632588  0.33587091  0.18965233     0.26200
C1608       C  0.02255347  0.31456704  0.21120922    -0.11500
C1609       C  0.01226093  0.32208991  0.23909599    -0.25400
C1610       C  0.00768932  0.35158605  0.24581776     0.37000
C1611       C  0.02313161  0.38788165  0.17236705     0.06600
F1612       F  0.03608149  0.32757800  0.16286218    -0.19200
H1613       H  0.02577349  0.29187084  0.20553928     0.16400
F1614       F  0.99765759  0.35942929  0.27263730    -0.22900
H1615       H  0.00548740  0.39522938  0.22942161     0.18200
C1616       C  0.03778203  0.41398733  0.17818631     0.26200
C1617       C  0.04692906  0.43157600  0.15509499    -0.11500
C1618       C  0.04424779  0.42218491  0.12559765    -0.25500
C1619       C  0.02284753  0.40078153  0.12039592     0.37100
C1620       C  0.01351588  0.38288568  0.14352606    -0.27100
F1621       F  0.04595043  0.42121903  0.20578320    -0.19300
H1622       H  0.05905880  0.45095416  0.16065363     0.16400
F1623       F  0.01392730  0.39436056  0.09282525    -0.23000
H1624       H  0.99990580  0.36430356  0.13869495     0.18300
C1625       C  0.93173621  0.13680068  0.36328368    -0.27000
C1626       C  0.94399886  0.16349575  0.37129758     0.06600
C1627       C  0.94928683  0.16869793  0.40130845     0.26200
C1628       C  0.93792117  0.14977547  0.42258732    -0.11500
C1629       C  0.91787091  0.12841039  0.41402970    -0.25400
C1630       C  0.91987304  0.11867433  0.38458502     0.37000
C1631       C  0.94903787  0.18623259  0.34863977     0.06600
F1632       F  0.96351579  0.19300768  0.41011039    -0.19200
H1633       H  0.94060144  0.15506179  0.44553815     0.16400
F1634       F  0.90810848  0.09299527  0.37590678    -0.22900
H1635       H  0.92915628  0.13091957  0.34049332     0.18200
C1636       C  0.96226612  0.17956455  0.32160967     0.26200
C1637       C  0.96674823  0.20144691  0.30075467    -0.11500
C1638       C  0.95830416  0.23029520  0.30646074    -0.25500
C1639       C  0.94341989  0.23659835  0.33252841     0.37100
C1640       C  0.93890261  0.21476499  0.35340950    -0.27100
F1641       F  0.97248936  0.15237378  0.31601953    -0.19300
H1642       H  0.97879173  0.19634221  0.28101892     0.16400
F1643       F  0.93529947  0.26434713  0.33873905    -0.23000
H1644       H  0.92781233  0.22028194  0.37359587     0.18300
C1645       C  0.93441475  0.35511856  0.21299112    -0.27000
C1646       C  0.93816994  0.34723409  0.18350621     0.06600
C1647       C  0.94767363  0.31883488  0.17687262     0.26200
C1648       C  0.95508442  0.29943457  0.19938663    -0.11500
C1649       C  0.95274977  0.30789567  0.22883139    -0.25400
C1650       C  0.94125557  0.33550568  0.23547812     0.37000
C1651       C  0.93014593  0.36810732  0.15995106     0.06600
F1652       F  0.95102894  0.31033844  0.14861629    -0.19200
H1653       H  0.96438786  0.27846137  0.19385228     0.16400
F1654       F  0.93858619  0.34415971  0.26377316    -0.22900
H1655       H  0.92636732  0.37659892  0.21857350     0.18200
C1656       C  0.90718223  0.36151102  0.14114421     0.26200
C1657       C  0.89545168  0.38288992  0.12293975    -0.11500
C1658       C  0.90650846  0.41182266  0.12236996    -0.25500
C1659       C  0.93205050  0.41713090  0.13892649     0.37100
C1660       C  0.94308600  0.39574588  0.15805753    -0.27100
F1661       F  0.89390903  0.33517177  0.14262518    -0.19300
H1662       H  0.87583526  0.37671373  0.11179320     0.16400
F1663       F  0.94368038  0.44423561  0.14002473    -0.23000
H1664       H  0.96073662  0.40133132  0.17262987     0.18300
C1665       C  0.01314018  0.23469850  0.37176779    -0.27000
C1666       C  0.02529510  0.20728510  0.36566000     0.06600
C1667       C  0.03543843  0.20150337  0.33716772     0.26200
C1668       C  0.03094304  0.22173241  0.31465622    -0.11500
C1669       C  0.01619269  0.24792467  0.32024064    -0.25400
C1670       C  0.00877075  0.25496677  0.34927122     0.37000
C1671       C  0.02754324  0.18473067  0.38884991     0.06600
F1672       F  0.04872986  0.17582069  0.33092296    -0.19200
H1673       H  0.03661129  0.21583919  0.29240641     0.16400
F1674       F  0.99457155  0.28021243  0.35526600    -0.22900
H1675       H  0.00559963  0.23979244  0.39364331     0.18200
C1676       C  0.04264733  0.19036116  0.41472391     0.26200
C1677       C  0.04976842  0.16747157  0.43349175    -0.11500
C1678       C  0.04351766  0.13802255  0.42602360    -0.25500
C1679       C  0.02198374  0.13405491  0.40428035     0.37100
C1680       C  0.01579419  0.15682802  0.38470921    -0.27100
F1681       F  0.05313770  0.21738172  0.42042707    -0.19300
H1682       H  0.06263973  0.17310602  0.45238167     0.16400
F1683       F  0.01176590  0.10717098  0.39770429    -0.23000
H1684       H  0.00310758  0.15219632  0.36537756     0.18300
C1685       C  0.32105584  0.95087517  0.15921391    -0.27000
C1686       C  0.33147654  0.97342230  0.17665383     0.06600
C1687       C  0.35753813  0.98706895  0.16811140     0.26200
C1688       C  0.37260367  0.97790821  0.14271390    -0.11500
C1689       C  0.36270926  0.95434130  0.12530656    -0.25400
C1690       C  0.33622516  0.94104196  0.13478313     0.37000
C1691       C  0.31430943  0.98172891  0.20332299     0.06600
F1692       F  0.36884821  0.00887074  0.18452374    -0.19200
H1693       H  0.39318799  0.98812634  0.13781700     0.16400
F1694       F  0.32497528  0.91696363  0.12223145    -0.22900
H1695       H  0.30145789  0.93942523  0.16547022     0.18200
C1696       C  0.32711043  0.98511602  0.23118429     0.26200
C1697       C  0.30992833  0.99245513  0.25565269    -0.11500
C1698       C  0.27972878  0.99618987  0.25284521    -0.25500
C1699       C  0.26684117  0.99107120  0.22549487     0.37100
C1700       C  0.28390242  0.98423441  0.20111628    -0.27100
F1701       F  0.35610381  0.98131633  0.23484320    -0.19300
H1702       H  0.32036686  0.99680329  0.27642760     0.16400
F1703       F  0.23786721  0.99525964  0.22184520    -0.23000
H1704       H  0.27328409  0.98167726  0.18012399     0.18300
C1705       C  0.11904790  0.06398875  0.39985278    -0.27000
C1706       C  0.11900351  0.07482563  0.37121144     0.06600
C1707       C  0.09559323  0.09178398  0.36194988     0.26200
C1708       C  0.07491653  0.10133550  0.38214763    -0.11500
C1709       C  0.07625966  0.09321973  0.41224106    -0.25400
C1710       C  0.09733959  0.07189870  0.41978010     0.37000
C1711       C  0.14468173  0.07100782  0.35207224     0.06600
F1712       F  0.09466105  0.10223579  0.33414869    -0.19200
H1713       H  0.06086339  0.11789865  0.37384189     0.16400
F1714       F  0.10010943  0.06248536  0.44779344    -0.22900
H1715       H  0.13694210  0.05075445  0.40740672     0.18200
C1716       C  0.17190978  0.08198693  0.36061028     0.26200
C1717       C  0.19657184  0.07670929  0.34341560    -0.11500
C1718       C  0.19439755  0.06002061  0.31780537    -0.25500
C1719       C  0.16678903  0.05117119  0.30808253     0.37100
C1720       C  0.14213094  0.05667783  0.32511212    -0.27100
F1721       F  0.17476225  0.09690149  0.38610482    -0.19300
H1722       H  0.21768051  0.08343191  0.35136312     0.16400
F1723       F  0.16411917  0.03498482  0.28336467    -0.23000
H1724       H  0.12124553  0.04852274  0.31795731     0.18300
C1725       C  0.32955950  0.06574052  0.23453432    -0.27000
C1726       C  0.32108236  0.06753604  0.20500360     0.06600
C1727       C  0.29130568  0.06566123  0.19812368     0.26200
C1728       C  0.27077694  0.06105846  0.22025064    -0.11500
C1729       C  0.27957057  0.05821306  0.24948464    -0.25400
C1730       C  0.30899604  0.06161355  0.25660358     0.37000
C1731       C  0.34304448  0.07377540  0.18193748     0.06600
F1732       F  0.28201081  0.06812994  0.17004712    -0.19200
H1733       H  0.24820662  0.05787866  0.21438739     0.16400
F1734       F  0.31803426  0.05862340  0.28473700    -0.22900
H1735       H  0.35228410  0.06686404  0.24051672     0.18200
C1736       C  0.36299058  0.09623715  0.18617632     0.26200
C1737       C  0.38015996  0.10591269  0.16318564    -0.11500
C1738       C  0.37834331  0.09383175  0.13451645    -0.25500
C1739       C  0.36002321  0.06909479  0.13134029     0.37100
C1740       C  0.34262666  0.05950384  0.15472454    -0.27100
F1741       F  0.36370885  0.11137977  0.21171913    -0.19300
H1742       H  0.39219696  0.12525739  0.16820766     0.16400
F1743       F  0.35483644  0.05712348  0.10477621    -0.23000
H1744       H  0.32751178  0.04187447  0.15098425     0.18300
C1745       C  0.13437360  0.98881213  0.42402810    -0.27000
C1746       C  0.13315506  0.99208089  0.39335401     0.06600
C1747       C  0.10558377  0.99092287  0.38003182     0.26200
C1748       C  0.08196428  0.97943206  0.39532910    -0.11500
C1749       C  0.08571128  0.96830028  0.42388612    -0.25400
C1750       C  0.11009011  0.97856778  0.43957584     0.37000
C1751       C  0.16009316  0.99419972  0.37496776     0.06600
F1752       F  0.10186325  0.99902641  0.35169298    -0.19200
H1753       H  0.06173417  0.97632166  0.38368143     0.16400
F1754       F  0.11281283  0.97327076  0.46867276    -0.22900
H1755       H  0.15460963  0.99124623  0.43572486     0.18200
C1756       C  0.18476294  0.01006916  0.38382919     0.26200
C1757       C  0.20842879  0.01329115  0.36478010    -0.11500
C1758       C  0.20764941  0.00177887  0.33624998    -0.25500
C1759       C  0.18454058  0.98359304  0.32846666     0.37100
C1760       C  0.16124236  0.97961213  0.34775963    -0.27100
F1761       F  0.18528880  0.02456049  0.40969752    -0.19300
H1762       H  0.22612540  0.02742655  0.37117339     0.16400
F1763       F  0.18314909  0.97197485  0.30118771    -0.23000
H1764       H  0.14346279  0.96587887  0.34081115     0.18300
C1765       C  0.15671452  0.34782705  0.96679150    -0.27000
C1766       C  0.13249554  0.34784920  0.98580551     0.06600
C1767       C  0.12825729  0.32335342  0.00387341     0.26200
C1768       C  0.14957603  0.30162834  0.00555209    -0.11500
C1769       C  0.17558562  0.30393950  0.98959678    -0.25400
C1770       C  0.17814731  0.32616007  0.96868820     0.37000
C1771       C  0.11246745  0.37362094  0.98656242     0.06600
F1772       F  0.10496179  0.32148647  0.02192545    -0.19200
H1773       H  0.14712771  0.28446327  0.02164861     0.16400
F1774       F  0.20278989  0.32881907  0.95259179    -0.22900
H1775       H  0.15980820  0.36540421  0.95129678     0.18200
C1776       C  0.12338986  0.40215093  0.98334180     0.26200
C1777       C  0.10489390  0.42488587  0.97527090    -0.11500
C1778       C  0.07632226  0.41854561  0.96664131    -0.25500
C1779       C  0.06379616  0.39303135  0.97853174     0.37100
C1780       C  0.08206119  0.37020495  0.98761139    -0.27100
F1781       F  0.15223591  0.40769756  0.98483405    -0.19300
H1782       H  0.11433008  0.44594356  0.97051913     0.16400
F1783       F  0.03496420  0.38774327  0.97555377    -0.23000
H1784       H  0.07243001  0.34911681  0.99150104     0.18300
C1785       C  0.31433366  0.21553656  0.04964901    -0.27000
C1786       C  0.30386386  0.18710455  0.05413163     0.06600
C1787       C  0.27373923  0.18215349  0.05259604     0.26200
C1788       C  0.25467641  0.20505424  0.04677931    -0.11500
C1789       C  0.26521125  0.23307671  0.04104870    -0.25400
C1790       C  0.29516115  0.23836463  0.04295212     0.37000
C1791       C  0.32369415  0.16333760  0.06362915     0.06600
F1792       F  0.26276540  0.15490933  0.05571350    -0.19200
H1793       H  0.23170167  0.20052008  0.04467053     0.16400
F1794       F  0.30586664  0.26526436  0.03718875    -0.22900
H1795       H  0.33730698  0.22011141  0.05149081     0.18200
C1796       C  0.35067203  0.15793801  0.05024730     0.26200
C1797       C  0.36973727  0.13711795  0.06199316    -0.11500
C1798       C  0.36364529  0.12300058  0.08894464    -0.25500
C1799       C  0.33564241  0.12811776  0.10139707     0.37100
C1800       C  0.31616999  0.14729727  0.08842286    -0.27100
F1801       F  0.35952276  0.17406041  0.02702243    -0.19300
H1802       H  0.39091901  0.13493776  0.05195782     0.16400
F1803       F  0.32742037  0.11798749  0.12793713    -0.23000
H1804       H  0.29590279  0.15164760  0.09966206     0.18300
C1805       C  0.10504756  0.36604062  0.07435061    -0.27000
C1806       C  0.13025159  0.37988884  0.06413766     0.06600
C1807       C  0.12762804  0.40951356  0.05630402     0.26200
C1808       C  0.10159339  0.42463488  0.06140389    -0.11500
C1809       C  0.07966848  0.41267043  0.07964530    -0.25400
C1810       C  0.08067664  0.38189054  0.08322687     0.37000
C1811       C  0.15800671  0.36256580  0.06131013     0.06600
F1812       F  0.15066156  0.42503259  0.04649244    -0.19200
H1813       H  0.10141953  0.44774131  0.05661613     0.16400
F1814       F  0.06062438  0.36644526  0.09801166    -0.22900
H1815       H  0.10465717  0.34271015  0.07759804     0.18200
C1816       C  0.16305859  0.33763786  0.07895560     0.26200
C1817       C  0.18338921  0.31655379  0.07039606    -0.11500
C1818       C  0.20036858  0.32091152  0.04539176    -0.25500
C1819       C  0.20017904  0.34850531  0.03213173     0.37100
C1820       C  0.17865924  0.36875623  0.03942850    -0.27100
F1821       F  0.14758915  0.33289450  0.10379376    -0.19300
H1822       H  0.18424400  0.29596644  0.08195108     0.16400
F1823       F  0.21852712  0.35444353  0.00964290    -0.23000
H1824       H  0.17729914  0.38803033  0.02618975     0.18300
C1825       C  0.33279025  0.14664881  0.97698945    -0.27000
C1826       C  0.32310479  0.16794217  0.95707719     0.06600
C1827       C  0.33739178  0.17068980  0.93027942     0.26200
C1828       C  0.36078182  0.15281159  0.92357320    -0.11500
C1829       C  0.37201401  0.13202345  0.94365286    -0.25400
C1830       C  0.35742996  0.12933170  0.97084751     0.37000
C1831       C  0.29929138  0.18860366  0.96437589     0.06600
F1832       F  0.32822160  0.19032589  0.91003888    -0.19200
H1833       H  0.37031236  0.15543593  0.90211364     0.16400
F1834       F  0.36600218  0.10960849  0.99116878    -0.22900
H1835       H  0.32154849  0.14384482  0.99759102     0.18200
C1836       C  0.27144634  0.17899423  0.97250124     0.26200
C1837       C  0.24965148  0.19929096  0.97956659    -0.11500
C1838       C  0.25560907  0.22931835  0.97924769    -0.25500
C1839       C  0.28293528  0.23881204  0.96963707     0.37100
C1840       C  0.30449770  0.21867158  0.96234330    -0.27100
F1841       F  0.26555427  0.15010314  0.97421453    -0.19300
H1842       H  0.22889860  0.19156596  0.98752744     0.16400
F1843       F  0.28952704  0.26761302  0.96978526    -0.23000
H1844       H  0.32576939  0.22658957  0.95614386     0.18300
C1845       C  0.54281982  0.62591083  0.68875935    -0.27000
C1846       C  0.52659606  0.65144527  0.68539859     0.06600
C1847       C  0.51495611  0.65783184  0.65763791     0.26200
C1848       C  0.52235633  0.64067916  0.63333690    -0.11500
C1849       C  0.54497506  0.62007161  0.63557799    -0.25400
C1850       C  0.55121341  0.60976313  0.66431690     0.37000
C1851       C  0.52322198  0.67169887  0.71049227     0.06600
F1852       F  0.49805046  0.68170502  0.65356525    -0.19200
H1853       H  0.51416497  0.64709771  0.61207837     0.16400
F1854       F  0.56661221  0.58498758  0.66914341    -0.22900
H1855       H  0.55062987  0.61936326  0.71013336     0.18200
C1856       C  0.51382659  0.66166883  0.73801381     0.26200
C1857       C  0.50949894  0.68132724  0.76100566    -0.11500
C1858       C  0.51406888  0.71124204  0.75678826    -0.25500
C1859       C  0.52587249  0.72092646  0.73018345     0.37100
C1860       C  0.53025855  0.70128881  0.70717656    -0.27100
F1861       F  0.50657741  0.63331229  0.74198804    -0.19300
H1862       H  0.49981624  0.67362348  0.78118621     0.16400
F1863       F  0.53017303  0.74978517  0.72547892    -0.23000
H1864       H  0.53830849  0.70934792  0.68641735     0.18300
C1865       C  0.67906411  0.58728785  0.69223635    -0.27000
C1866       C  0.67397606  0.57282557  0.66531543     0.06600
C1867       C  0.69378999  0.55069901  0.65716766     0.26200
C1868       C  0.71564075  0.54154808  0.67671087    -0.11500
C1869       C  0.71889713  0.55471826  0.70438887    -0.25400
C1870       C  0.70161766  0.57896891  0.71104370     0.37000
C1871       C  0.64781736  0.58132751  0.64705128     0.06600
F1872       F  0.69205523  0.53754997  0.63065319    -0.19200
H1873       H  0.72890697  0.52286199  0.67101209     0.16400
F1874       F  0.70420188  0.59239955  0.73738718    -0.22900
H1875       H  0.66453267  0.60421081  0.69986904     0.18200
C1876       C  0.63022453  0.56133898  0.63137714     0.26200
C1877       C  0.60379122  0.57022653  0.61812592    -0.11500
C1878       C  0.59360808  0.59923758  0.62061738    -0.25500
C1879       C  0.61180998  0.61875661  0.63653466     0.37100
C1880       C  0.63844240  0.61027101  0.64798164    -0.27100
F1881       F  0.63761436  0.53286640  0.62973014    -0.19300
H1882       H  0.59110921  0.55372976  0.60744436     0.16400
F1883       F  0.60330580  0.64638670  0.64260986    -0.23000
H1884       H  0.65130535  0.62673739  0.65883525     0.18300
C1885       C  0.61678244  0.65385726  0.56108761    -0.27000
C1886       C  0.61464237  0.68215727  0.57237566     0.06600
C1887       C  0.59040318  0.68947557  0.58926823     0.26200
C1888       C  0.57090330  0.66792539  0.59807785    -0.11500
C1889       C  0.57462707  0.63826518  0.58967948    -0.25400
C1890       C  0.59599007  0.63272434  0.56795708     0.37000
C1891       C  0.63848640  0.70340333  0.56802061     0.06600
F1892       F  0.58745830  0.71677758  0.60034289    -0.19200
H1893       H  0.55581277  0.67508140  0.61434932     0.16400
F1894       F  0.59985258  0.60543979  0.55717600    -0.22900
H1895       H  0.63505830  0.64791149  0.54736462     0.18200
C1896       C  0.66702207  0.69656899  0.57671718     0.26200
C1897       C  0.68979017  0.71598237  0.57110947    -0.11500
C1898       C  0.68444306  0.74236085  0.55658023    -0.25500
C1899       C  0.65561250  0.75009298  0.54982540     0.37100
C1900       C  0.63287061  0.73070895  0.55542455    -0.27100
F1901       F  0.67292782  0.67078991  0.59000855    -0.19300
H1902       H  0.71186938  0.70950019  0.57614035     0.16400
F1903       F  0.64986466  0.77531966  0.53542426    -0.23000
H1904       H  0.61103004  0.73647444  0.54873402     0.18300
C1905       C  0.44302752  0.38667869  0.65321187    -0.27000
C1906       C  0.42380381  0.37229504  0.67221864     0.06600
C1907       C  0.39438675  0.37976438  0.67116578     0.26200
C1908       C  0.38449786  0.40065393  0.65142441    -0.11500
C1909       C  0.40331994  0.41556003  0.63177759    -0.25400
C1910       C  0.43326615  0.40851379  0.63380962     0.37000
C1911       C  0.43431839  0.35058057  0.69414148     0.06600
F1912       F  0.37480180  0.36601512  0.68854726    -0.19200
H1913       H  0.36137796  0.40483286  0.65113608     0.16400
F1914       F  0.45347198  0.42182902  0.61724151    -0.22900
H1915       H  0.46584659  0.38104911  0.65351348     0.18200
C1916       C  0.45162195  0.32653780  0.68602943     0.26200
C1917       C  0.46199674  0.30709612  0.70742206    -0.11500
C1918       C  0.45513663  0.31122799  0.73713788    -0.25500
C1919       C  0.43692804  0.33450906  0.74501597     0.37100
C1920       C  0.42677415  0.35397513  0.72378636    -0.27100
F1921       F  0.45854132  0.32192796  0.65751215    -0.19300
H1922       H  0.47642554  0.28954106  0.70099263     0.16400
F1923       F  0.43060624  0.33953250  0.77360725    -0.23000
H1924       H  0.41368298  0.37238366  0.73068676     0.18300
C1925       C  0.31851206  0.47675846  0.62557736    -0.27000
C1926       C  0.32026475  0.47793926  0.65639354     0.06600
C1927       C  0.34816798  0.47561828  0.66896054     0.26200
C1928       C  0.37143245  0.46502735  0.65240184    -0.11500
C1929       C  0.36746791  0.45693775  0.62286884    -0.25400
C1930       C  0.34270509  0.46863637  0.60873935     0.37000
C1931       C  0.29362615  0.47969061  0.67545200     0.06600
F1932       F  0.35280130  0.48212711  0.69755667    -0.19200
H1933       H  0.39187185  0.46102652  0.66340998     0.16400
F1934       F  0.33945702  0.46622086  0.57928274    -0.22900
H1935       H  0.29813514  0.47956450  0.61425110     0.18200
C1936       C  0.26807144  0.49440846  0.66669904     0.26200
C1937       C  0.24487900  0.49765585  0.68616943    -0.11500
C1938       C  0.24690394  0.48764281  0.71510653    -0.25500
C1939       C  0.27078238  0.47048495  0.72312250     0.37100
C1940       C  0.29354880  0.46604395  0.70324188    -0.27100
F1941       F  0.26584562  0.50774838  0.64035785    -0.19300
H1942       H  0.22647168  0.51087907  0.67962152     0.16400
F1943       F  0.27338310  0.46036931  0.75092078    -0.23000
H1944       H  0.31167823  0.45273258  0.71021680     0.18300
C1945       C  0.30921290  0.31792681  0.59497281    -0.27000
C1946       C  0.33006174  0.32670393  0.57411511     0.06600
C1947       C  0.33316803  0.30983192  0.54861609     0.26200
C1948       C  0.31207752  0.28913454  0.54162295    -0.11500
C1949       C  0.28714624  0.28616569  0.55920778    -0.25400
C1950       C  0.28736600  0.29828721  0.58736802     0.37000
C1951       C  0.34428035  0.35575205  0.57723007     0.06600
F1952       F  0.35434948  0.31539348  0.52885181    -0.19200
H1953       H  0.31314848  0.27845994  0.52050080     0.16400
F1954       F  0.26473410  0.29430450  0.60596637    -0.22900
H1955       H  0.30784355  0.32873666  0.61600946     0.18200
C1956       C  0.32807440  0.37913853  0.58831781     0.26200
C1957       C  0.34145207  0.40506288  0.59576749    -0.11500
C1958       C  0.37129003  0.41044711  0.59018043    -0.25500
C1959       C  0.38660798  0.38783985  0.57539716     0.37100
C1960       C  0.37340909  0.36080564  0.56964048    -0.27100
F1961       F  0.29915797  0.37664378  0.59370078    -0.19300
H1962       H  0.32807432  0.41893595  0.60899997     0.16400
F1963       F  0.41538064  0.39018766  0.56979083    -0.23000
H1964       H  0.38660137  0.34339550  0.56074883     0.18300
C1965       C  0.60177673  0.50126472  0.38552172    -0.27000
C1966       C  0.63034198  0.49048078  0.38765900     0.06600
C1967       C  0.63735473  0.47235016  0.41127696     0.26200
C1968       C  0.61535689  0.46151787  0.42919234    -0.11500
C1969       C  0.58575130  0.46695369  0.42255399    -0.25400
C1970       C  0.57993412  0.49127754  0.40455563     0.37000
C1971       C  0.65204628  0.49617905  0.36429157     0.06600
F1972       F  0.66490138  0.46247235  0.41511549    -0.19200
H1973       H  0.62162272  0.44644602  0.44625367     0.16400
F1974       F  0.55225447  0.50068528  0.40053507    -0.22900
H1975       H  0.59597412  0.51600284  0.36794594     0.18200
C1976       C  0.67935647  0.50816423  0.37083143     0.26200
C1977       C  0.69947404  0.51335776  0.34844693    -0.11500
C1978       C  0.69255017  0.50711394  0.31918196    -0.25500
C1979       C  0.66592669  0.49371445  0.31280347     0.37100
C1980       C  0.64581273  0.48841218  0.33519349    -0.27100
F1981       F  0.68587288  0.51650024  0.39855980    -0.19300
H1982       H  0.71960783  0.52436311  0.35363162     0.16400
F1983       F  0.65862126  0.48769710  0.28466489    -0.23000
H1984       H  0.62511298  0.47864947  0.32977240     0.18300
C1985       C  0.60998340  0.37691372  0.43150543    -0.27000
C1986       C  0.60840082  0.36697905  0.46012057     0.06600
C1987       C  0.58876883  0.38025394  0.47962343     0.26200
C1988       C  0.57304607  0.40522354  0.47114240    -0.11500
C1989       C  0.57587724  0.41658693  0.44253205    -0.25400
C1990       C  0.59380639  0.40077356  0.42256637     0.37000
C1991       C  0.62939423  0.34433002  0.46905553     0.06600
F1992       F  0.58457705  0.36892091  0.50660953    -0.19200
H1993       H  0.55913065  0.41556867  0.48712610     0.16400
F1994       F  0.59808563  0.40983587  0.39470696    -0.22900
H1995       H  0.62474220  0.36668531  0.41611050     0.18200
C1996       C  0.62374086  0.31477540  0.46382193     0.26200
C1997       C  0.64510168  0.29375465  0.46959484    -0.11500
C1998       C  0.67237000  0.30197045  0.48057927    -0.25500
C1999       C  0.67867087  0.33174864  0.48374664     0.37100
C2000       C  0.65724320  0.35271058  0.47820070    -0.27100
F2001       F  0.59738706  0.30628006  0.45371972    -0.19300
H2002       H  0.63972279  0.27090842  0.46741902     0.16400
F2003       F  0.70492167  0.34035783  0.49405503    -0.23000
H2004       H  0.66230938  0.37555342  0.48112581     0.18300
C2005       C  0.51626469  0.34749726  0.34384687    -0.27000
C2006       C  0.51001904  0.37700626  0.33859461     0.06600
C2007       C  0.49979807  0.38546411  0.31084546     0.26200
C2008       C  0.49505621  0.36456827  0.28917088    -0.11500
C2009       C  0.50004144  0.33498144  0.29494939    -0.25400
C2010       C  0.51124110  0.32658439  0.32222407     0.37000
C2011       C  0.51707163  0.39903377  0.36111222     0.06600
F2012       F  0.49339413  0.41376613  0.30508925    -0.19200
H2013       H  0.48580305  0.37122470  0.26841626     0.16400
F2014       F  0.51580074  0.29803172  0.32841034    -0.22900
H2015       H  0.52500230  0.34064754  0.36476120     0.18200
C2016       C  0.50844220  0.39592510  0.39036023     0.26200
C2017       C  0.51986739  0.41415299  0.41201342    -0.11500
C2018       C  0.54186352  0.43480442  0.40568425    -0.25500
C2019       C  0.54934917  0.43802554  0.37535698     0.37100
C2020       C  0.53621687  0.42122033  0.35382138    -0.27100
F2021       F  0.49036555  0.37402290  0.39835577    -0.19300
H2022       H  0.51406706  0.40922509  0.43436853     0.16400
F2023       F  0.57293670  0.45247341  0.36569268    -0.23000
H2024       H  0.54395319  0.42319301  0.33148783     0.18300
C2025       C  0.43485830  0.64841362  0.38408828    -0.27000
C2026       C  0.42329628  0.67688182  0.38407858     0.06600
C2027       C  0.40230212  0.68388472  0.40507382     0.26200
C2028       C  0.39172276  0.66279226  0.42398258    -0.11500
C2029       C  0.40076793  0.63318297  0.42242980    -0.25400
C2030       C  0.42497006  0.62730773  0.40420581     0.37000
C2031       C  0.43230406  0.69956841  0.36247510     0.06600
F2032       F  0.39012865  0.71084607  0.40607985    -0.19200
H2033       H  0.37519595  0.67043093  0.43879031     0.16400
F2034       F  0.43679280  0.60020267  0.40339312    -0.22900
H2035       H  0.45114147  0.64226671  0.36817291     0.18200
C2036       C  0.43282908  0.69398864  0.33213349     0.26200
C2037       C  0.43932902  0.71643276  0.31224419    -0.11500
C2038       C  0.44533392  0.74473015  0.32228543    -0.25500
C2039       C  0.44385897  0.75045887  0.35241267     0.37100
C2040       C  0.43802242  0.72806894  0.37221458    -0.27100
F2041       F  0.42703244  0.66694813  0.32171359    -0.19300
H2042       H  0.44114633  0.71143068  0.28914062     0.16400
F2043       F  0.44991406  0.77747588  0.36277790    -0.23000
H2044       H  0.43825157  0.73302238  0.39539471     0.18300
C2045       C  0.33574689  0.65587544  0.49026320    -0.27000
C2046       C  0.31107564  0.66103867  0.47281830     0.06600
C2047       C  0.30974221  0.64839403  0.44513657     0.26200
C2048       C  0.33220286  0.63073237  0.43527585    -0.11500
C2049       C  0.35641992  0.62310697  0.45319338    -0.25400
C2050       C  0.35770301  0.63637578  0.48119672     0.37000
C2051       C  0.28698126  0.68034307  0.48252236     0.06600
F2052       F  0.28758664  0.65486691  0.42660597    -0.19200
H2053       H  0.33100472  0.62422247  0.41258970     0.16400
F2054       F  0.38107462  0.63261481  0.49883602    -0.22900
H2055       H  0.33812896  0.66717640  0.51090974     0.18200
C2056       C  0.25827979  0.66980186  0.48399388     0.26200
C2057       C  0.23538355  0.68829819  0.49216722    -0.11500
C2058       C  0.24074444  0.71757529  0.49890944    -0.25500
C2059       C  0.26924308  0.72834692  0.49632987     0.37100
C2060       C  0.29215120  0.70982634  0.48842930    -0.27100
F2061       F  0.25260591  0.64133177  0.47848514    -0.19300
H2062       H  0.21373865  0.67944649  0.49472728     0.16400
F2063       F  0.27501531  0.75661233  0.50273076    -0.23000
H2064       H  0.31396262  0.71850215  0.48685886     0.18300
C2065       C  0.32471470  0.55830339  0.40596582    -0.27000
C2066       C  0.32591076  0.56490170  0.37591000     0.06600
C2067       C  0.35152182  0.57811977  0.36550961     0.26200
C2068       C  0.37240974  0.58892620  0.38493350    -0.11500
C2069       C  0.36950799  0.58590400  0.41569957    -0.25400
C2070       C  0.34667237  0.56727204  0.42530117     0.37000
C2071       C  0.30072699  0.55883898  0.35556302     0.06600
F2072       F  0.35616231  0.58178426  0.33638524    -0.19200
H2073       H  0.38933653  0.60147343  0.37496912     0.16400
F2074       F  0.34205789  0.56248924  0.45424013    -0.22900
H2075       H  0.30576024  0.54813857  0.41534638     0.18200
C2076       C  0.28242425  0.53436829  0.35901267     0.26200
C2077       C  0.26246409  0.52687767  0.33707969    -0.11500
C2078       C  0.26103704  0.54271194  0.31075089    -0.25500
C2079       C  0.27624258  0.56908085  0.30889548     0.37100
C2080       C  0.29541169  0.57724813  0.33130110    -0.27100
F2081       F  0.28556832  0.51579373  0.38186145    -0.19300
H2082       H  0.25048969  0.50671684  0.33920719     0.16400
F2083       F  0.27476408  0.58550853  0.28423546    -0.23000
H2084       H  0.30716198  0.59745644  0.32880862     0.18300
C2085       C  0.68264833  0.67860304  0.49843587    -0.27000
C2086       C  0.65527545  0.68543244  0.48690140     0.06600
C2087       C  0.64923461  0.71421537  0.47829914     0.26200
C2088       C  0.66975357  0.73617313  0.48292844    -0.11500
C2089       C  0.69630138  0.72962976  0.49647096    -0.25400
C2090       C  0.70306723  0.70051352  0.50316263     0.37000
C2091       C  0.63413739  0.66203554  0.48125919     0.06600
F2092       F  0.62336781  0.72107726  0.46580865    -0.19200
H2093       H  0.66412287  0.75853399  0.47796828     0.16400
F2094       F  0.72852486  0.69373725  0.51653331    -0.22900
H2095       H  0.68784392  0.65640054  0.50453263     0.18200
C2096       C  0.64066518  0.64114229  0.46020336     0.26200
C2097       C  0.61885501  0.62343424  0.44926944    -0.11500
C2098       C  0.59004964  0.62405995  0.46068327    -0.25500
C2099       C  0.58533034  0.64194740  0.48560105     0.37100
C2100       C  0.60653745  0.66209869  0.49423981    -0.27100
F2101       F  0.66722325  0.64057149  0.44722798    -0.19300
H2102       H  0.62486714  0.61236365  0.42949589     0.16400
F2103       F  0.55865675  0.64382244  0.49809915    -0.23000
H2104       H  0.60095891  0.67867162  0.51014379     0.18300
C2105       C  0.51090977  0.66465717  0.39949436    -0.27000
C2106       C  0.52841362  0.68917201  0.39463735     0.06600
C2107       C  0.55413916  0.69180754  0.41050169     0.26200
C2108       C  0.56376164  0.66892436  0.42794746    -0.11500
C2109       C  0.54773284  0.64255558  0.43122918    -0.25400
C2110       C  0.52013429  0.64163962  0.41751323     0.37000
C2111       C  0.52160867  0.71008292  0.37068013     0.06600
F2112       F  0.57176889  0.71518316  0.40678157    -0.19200
H2113       H  0.58537866  0.67162687  0.43642084     0.16400
F2114       F  0.50430414  0.61676592  0.41721234    -0.22900
H2115       H  0.49100739  0.66249785  0.38754381     0.18200
C2116       C  0.51502083  0.69985844  0.34238656     0.26200
C2117       C  0.50824987  0.71944415  0.31997202    -0.11500
C2118       C  0.50736020  0.74951484  0.32538423    -0.25500
C2119       C  0.51574878  0.75992068  0.35302018     0.37100
C2120       C  0.52276150  0.74033238  0.37548266    -0.27100
F2121       F  0.51470576  0.67088672  0.33646054    -0.19300
H2122       H  0.50173987  0.71105277  0.29881147     0.16400
F2123       F  0.51491711  0.78887863  0.35890443    -0.23000
H2124       H  0.52796886  0.74878907  0.39696930     0.18300
C2125       C  0.62837559  0.56682866  0.31732952    -0.27000
C2126       C  0.63488266  0.57651269  0.34572818     0.06600
C2127       C  0.66380861  0.58329080  0.35281493     0.26200
C2128       C  0.68602522  0.57847237  0.33245547    -0.11500
C2129       C  0.67976426  0.56644150  0.30495312    -0.25400
C2130       C  0.65064368  0.56182451  0.29704261     0.37000
C2131       C  0.61155287  0.58009576  0.36781331     0.06600
F2132       F  0.67064243  0.59374114  0.37973985    -0.19200
H2133       H  0.70838341  0.58180510  0.33902091     0.16400
F2134       F  0.64404421  0.55013962  0.27058472    -0.22900
H2135       H  0.60617150  0.56187252  0.31133426     0.18200
C2136       C  0.58856606  0.59921151  0.36265555     0.26200
C2137       C  0.57022406  0.60734304  0.38553188    -0.11500
C2138       C  0.57398775  0.59640388  0.41448829    -0.25500
C2139       C  0.59339233  0.57243648  0.41749434     0.37100
C2140       C  0.61325545  0.56612324  0.39503537    -0.27100
F2141       F  0.58576432  0.61265963  0.33632604    -0.19300
H2142       H  0.55508758  0.62429375  0.38012851     0.16400
F2143       F  0.59839309  0.55994852  0.44390379    -0.23000
H2144       H  0.63104217  0.55134910  0.39948506     0.18300
C2145       C  0.36697701  0.47770396  0.37128856    -0.27000
C2146       C  0.33892062  0.46745492  0.36474847     0.06600
C2147       C  0.32398202  0.45244564  0.38704368     0.26200
C2148       C  0.33798939  0.44466001  0.41291962    -0.11500
C2149       C  0.36652048  0.45405607  0.41952850    -0.25400
C2150       C  0.38000393  0.47228878  0.39852089     0.37000
C2151       C  0.32488846  0.47248432  0.33537945     0.06600
F2152       F  0.29583968  0.44430487  0.38385925    -0.19200
H2153       H  0.32660090  0.42919918  0.42641628     0.16400
F2154       F  0.40718568  0.48264984  0.40295326    -0.22900
H2155       H  0.37980043  0.48890422  0.35502642     0.18200
C2156       C  0.32985948  0.49800308  0.31882723     0.26200
C2157       C  0.31162332  0.50507466  0.29537532    -0.11500
C2158       C  0.28703823  0.48808778  0.28922546    -0.25500
C2159       C  0.28475297  0.46060128  0.30239830     0.37100
C2160       C  0.30415105  0.45256126  0.32456175    -0.27100
F2161       F  0.35004544  0.51787462  0.32682023    -0.19300
H2162       H  0.31461255  0.52575421  0.28438839     0.16400
F2163       F  0.26229719  0.44265486  0.29586836    -0.23000
H2164       H  0.30153794  0.43135669  0.33450103     0.18300
C2165       C  0.35520924  0.37545005  0.48874212    -0.27000
C2166       C  0.32663938  0.38521885  0.49292381     0.06600
C2167       C  0.32091093  0.41520650  0.49023958     0.26200
C2168       C  0.34195962  0.43358532  0.47778995    -0.11500
C2169       C  0.36804239  0.42169413  0.46654482    -0.25400
C2170       C  0.37619464  0.39389260  0.47701191     0.37000
C2171       C  0.30310896  0.36347130  0.49704781     0.06600
F2172       F  0.29421110  0.42608684  0.49657477    -0.19200
H2173       H  0.33627461  0.45604118  0.47335729     0.16400
F2174       F  0.40336687  0.38321550  0.47259677    -0.22900
H2175       H  0.36083556  0.35291622  0.49244192     0.18200
C2176       C  0.30020669  0.34019775  0.47709622     0.26200
C2177       C  0.28078192  0.31743097  0.48265872    -0.11500
C2178       C  0.26408540  0.31738610  0.50830421    -0.25500
C2179       C  0.26503564  0.34196818  0.52686736     0.37100
C2180       C  0.28440890  0.36479685  0.52123038    -0.27100
F2181       F  0.31693379  0.33903901  0.45263437    -0.19300
H2182       H  0.28033788  0.29885587  0.46806575     0.16400
F2183       F  0.24870431  0.34283050  0.55161115    -0.23000
H2184       H  0.28589262  0.38271157  0.53655638     0.18300
C2185       C  0.43257716  0.39959372  0.38124443    -0.27000
C2186       C  0.41443395  0.37656370  0.37275412     0.06600
C2187       C  0.38878020  0.37187113  0.38827936     0.26200
C2188       C  0.38108913  0.39027142  0.41133481    -0.11500
C2189       C  0.39929762  0.41337718  0.42098935    -0.25400
C2190       C  0.42561294  0.41742474  0.40537678     0.37000
C2191       C  0.42201484  0.35753130  0.34756338     0.06600
F2192       F  0.37025851  0.35041082  0.38006417    -0.19200
H2193       H  0.35992056  0.38695069  0.42102155     0.16400
F2194       F  0.44400491  0.43941595  0.41206129    -0.22900
H2195       H  0.45205224  0.40401666  0.36880321     0.18200
C2196       C  0.41972623  0.36768285  0.31861521     0.26200
C2197       C  0.42823471  0.34987938  0.29511999    -0.11500
C2198       C  0.43948562  0.32185743  0.30018322    -0.25500
C2199       C  0.44018118  0.31115256  0.32903978     0.37100
C2200       C  0.43139367  0.32883311  0.35247604    -0.27100
F2201       F  0.40999494  0.39506698  0.31316166    -0.19300
H2202       H  0.42797220  0.35868192  0.27313185     0.16400
F2203       F  0.45126429  0.28431638  0.33468297    -0.23000
H2204       H  0.43295625  0.32052650  0.37461573     0.18300
C2205       C  0.59819695  0.48917928  0.66473446    -0.27000
C2206       C  0.62744969  0.48025177  0.66374227     0.06600
C2207       C  0.63682146  0.46516331  0.63859376     0.26200
C2208       C  0.61685448  0.45423234  0.61854196    -0.11500
C2209       C  0.58680113  0.46012675  0.62116724    -0.25400
C2210       C  0.57860471  0.48082255  0.64279653     0.37000
C2211       C  0.64832316  0.48601368  0.68833644     0.06600
F2212       F  0.66541931  0.45978552  0.63368216    -0.19200
H2213       H  0.62578117  0.43928572  0.60297377     0.16400
F2214       F  0.55041637  0.48911875  0.64562645    -0.22900
H2215       H  0.58973729  0.50125417  0.68314616     0.18200
C2216       C  0.64699870  0.51138941  0.70578102     0.26200
C2217       C  0.66947416  0.51770245  0.72539024    -0.11500
C2218       C  0.69461261  0.50028643  0.72636533    -0.25500
C2219       C  0.69458327  0.47359340  0.71160044     0.37100
C2220       C  0.67116385  0.46611827  0.69373262    -0.27100
F2221       F  0.62551743  0.53138123  0.70252971    -0.19300
H2222       H  0.66845600  0.53771218  0.73789369     0.16400
F2223       F  0.71809019  0.45573749  0.71266006    -0.23000
H2224       H  0.67182122  0.44518545  0.68287166     0.18300
C2225       C  0.51424900  0.41303392  0.67409385    -0.27000
C2226       C  0.53463051  0.39561241  0.68919168     0.06600
C2227       C  0.56352254  0.39595846  0.67985648     0.26200
C2228       C  0.57111832  0.40999882  0.65419300    -0.11500
C2229       C  0.55069178  0.42579733  0.63715911    -0.25400
C2230       C  0.52218810  0.42827778  0.64837862     0.37000
C2231       C  0.52614239  0.37435543  0.71232758     0.06600
F2232       F  0.58454519  0.38190437  0.69524959    -0.19200
H2233       H  0.59347611  0.40802046  0.64713021     0.16400
F2234       F  0.50219843  0.44531363  0.63498627    -0.22900
H2235       H  0.49207207  0.41427943  0.68180357     0.18200
C2236       C  0.50879007  0.38193439  0.73655436     0.26200
C2237       C  0.50152354  0.36077225  0.75757575    -0.11500
C2238       C  0.51140091  0.33188304  0.75464327    -0.25500
C2239       C  0.52930349  0.32462182  0.73093929     0.37100
C2240       C  0.53632425  0.34550198  0.70999206    -0.27100
F2241       F  0.49876727  0.40955464  0.73981020    -0.19300
H2242       H  0.48705337  0.36653567  0.77537271     0.16400
F2243       F  0.53826582  0.29671075  0.72691940    -0.23000
H2244       H  0.54921426  0.33882633  0.69130280     0.18300
C2245       C  0.58201862  0.36188451  0.58198406    -0.27000
C2246       C  0.60694015  0.36732799  0.56537464     0.06600
C2247       C  0.61211914  0.39612726  0.55601373     0.26200
C2248       C  0.59463466  0.41912935  0.56627079    -0.11500
C2249       C  0.57408472  0.41425670  0.58863738    -0.25400
C2250       C  0.56519218  0.38484025  0.59269769     0.37000
C2251       C  0.62672497  0.34276603  0.55760322     0.06600
F2252       F  0.63410458  0.40202278  0.53713205    -0.19200
H2253       H  0.59959831  0.44114617  0.55942906     0.16400
F2254       F  0.54056953  0.37789050  0.60746375    -0.22900
H2255       H  0.57606096  0.33979512  0.58765960     0.18200
C2256       C  0.65686809  0.34484897  0.56229216     0.26200
C2257       C  0.67527927  0.32173055  0.55474544    -0.11500
C2258       C  0.66406916  0.29615808  0.54239842    -0.25500
C2259       C  0.63387079  0.29334253  0.53915735     0.37100
C2260       C  0.61541066  0.31647039  0.54666162    -0.27100
F2261       F  0.66857660  0.36925916  0.57409877    -0.19300
H2262       H  0.69854168  0.32438136  0.55704083     0.16400
F2263       F  0.62244567  0.26892355  0.52706394    -0.23000
H2264       H  0.59229072  0.31417067  0.54303041     0.18300
C2265       C  0.44602287  0.64095387  0.66511050    -0.27000
C2266       C  0.43606698  0.66986224  0.66783948     0.06600
C2267       C  0.41872338  0.68132744  0.64534747     0.26200
C2268       C  0.40734141  0.66284592  0.62403791    -0.11500
C2269       C  0.41067972  0.63226804  0.62653882    -0.25400
C2270       C  0.43438823  0.62248563  0.64355724     0.37000
C2271       C  0.44226568  0.68734806  0.69456914     0.06600
F2272       F  0.41025582  0.70967156  0.64552717    -0.19200
H2273       H  0.39331451  0.67245068  0.60768297     0.16400
F2274       F  0.44219699  0.59397159  0.64342608    -0.22900
H2275       H  0.46114676  0.63208988  0.68094796     0.18200
C2276       C  0.43712312  0.67582461  0.72273705     0.26200
C2277       C  0.44297485  0.69247168  0.74778092    -0.11500
C2278       C  0.45389406  0.72082658  0.74510325    -0.25500
C2279       C  0.45757537  0.73284625  0.71709206     0.37100
C2280       C  0.45203170  0.71620234  0.69212191    -0.27100
F2281       F  0.42652818  0.64846616  0.72606259    -0.19300
H2282       H  0.44040759  0.68276087  0.76923402     0.16400
F2283       F  0.46854652  0.76007956  0.71397941    -0.23000
H2284       H  0.45626239  0.72562268  0.67082071     0.18300
C2285       C  0.29121171  0.71124909  0.57905977    -0.27000
C2286       C  0.28644992  0.68096419  0.57842168     0.06600
C2287       C  0.25877069  0.67068357  0.57085767     0.26200
C2288       C  0.23679460  0.69031111  0.56282527    -0.11500
C2289       C  0.24208204  0.72048391  0.56171217    -0.25400
C2290       C  0.26934017  0.73086790  0.57062293     0.37000
C2291       C  0.31035922  0.66073229  0.58684957     0.06600
F2292       F  0.25306590  0.64170890  0.57098088    -0.19200
H2293       H  0.21598592  0.68185042  0.55580795     0.16400
F2294       F  0.27544178  0.75973266  0.56919694    -0.22900
H2295       H  0.31232154  0.71965020  0.58517587     0.18200
C2296       C  0.32259258  0.64040581  0.56725476     0.26200
C2297       C  0.34834403  0.62517611  0.57450438    -0.11500
C2298       C  0.36087004  0.62801726  0.60258651    -0.25500
C2299       C  0.34557958  0.64583526  0.62317363     0.37100
C2300       C  0.32182750  0.66271356  0.61493134    -0.27100
F2301       F  0.30925367  0.63489212  0.54144583    -0.19300
H2302       H  0.35768607  0.61049901  0.55855001     0.16400
F2303       F  0.35443719  0.64824378  0.65138190    -0.23000
H2304       H  0.31209608  0.67732818  0.63079677     0.18300
C2305       C  0.35443220  0.58224356  0.68590082    -0.27000
C2306       C  0.33064056  0.56734102  0.67463963     0.06600
C2307       C  0.33025573  0.56053443  0.64476832     0.26200
C2308       C  0.35220340  0.57058745  0.62621431    -0.11500
C2309       C  0.37435915  0.58946986  0.63638773    -0.25400
C2310       C  0.37575804  0.59356367  0.66745213     0.37000
C2311       C  0.30545653  0.56125023  0.69388556     0.06600
F2312       F  0.30762139  0.54585408  0.63302860    -0.19200
H2313       H  0.34923350  0.56690094  0.60304752     0.16400
F2314       F  0.39441128  0.61181173  0.68078353    -0.22900
H2315       H  0.35512538  0.58764596  0.70898527     0.18200
C2316       C  0.30912943  0.54590164  0.72021913     0.26200
C2317       C  0.28509655  0.53935677  0.73765200    -0.11500
C2318       C  0.25702550  0.54783150  0.72906457    -0.25500
C2319       C  0.25357591  0.56519973  0.70402693     0.37100
C2320       C  0.27766900  0.57171554  0.68647101    -0.27100
F2321       F  0.33567715  0.53573151  0.72816623    -0.19300
H2322       H  0.28806915  0.52574930  0.75680625     0.16400
F2323       F  0.22669701  0.57371243  0.69531644    -0.23000
H2324       H  0.27456995  0.58436393  0.66669894     0.18300
loop_ 
_geom_bond_atom_site_label_1 
_geom_bond_atom_site_label_2 
_geom_bond_distance 
_geom_bond_site_symmetry_2 
_ccdc_geom_bond_type 
C1           C10   1.570       .  S
C1         C2269   1.564       .  S
C1         C2298   1.571       .  S
C1         C2309   1.569       .  S
N2            N3   1.331       .  A
N2            N8   1.321       .  A
N2          Mn31   2.260       .  S
N3           C10   1.363       .  A
N4            N6   1.321       .  A
N4            N5   1.334       .  A
N4          Mn20   2.284       .  S
N5           C11   1.368       .  A
N6            N7   1.325       .  A
N6          Mn31   2.234       .  S
N7           C11   1.355       .  A
N8            N9   1.327       .  A
N8          Mn20   2.256       .  S
N9           C10   1.362       .  A
C11          C50   1.565       .  S
N12          N18   1.320       .  A
N12          N13   1.324       .  A
N12         Mn42   2.236       .  S
N13          C21   1.356       .  A
N14          N15   1.330       .  A
N14          N16   1.321       .  A
N14         Mn20   2.286       .  S
N15          C22   1.368       .  A
N16          N17   1.328       .  A
N16         Mn42   2.227       .  S
N17          C22   1.355       .  A
N18          N19   1.329       .  A
N18         Mn20   2.251       .  S
N19          C21   1.363       .  A
Mn20        Cl44   2.593       .  S
C21          C49   1.559       .  S
C22          C53   1.565       .  S
N23          N24   1.327       .  A
N23          N29   1.320       .  A
N23         Mn31   2.258       .  S
N24          C32   1.361       .  A
N25          N27   1.319       .  A
N25          N26   1.327       .  A
N25         Mn43   2.234       .  S
N26          C33   1.357       .  A
N27          N28   1.325       .  A
N27         Mn31   2.253       .  S
N28          C33   1.364       .  A
N29          N30   1.328       .  A
N29         Mn43   2.237       .  S
N30          C32   1.359       .  A
Mn31        Cl44   2.568       .  S
C32          C48   1.545       .  S
C33          C52   1.565       .  S
N34          N35   1.324       .  A
N34          N40   1.319       .  A
N34         Mn42   2.242       .  S
N35          C45   1.359       .  A
N36          N37   1.329       .  A
N36          N38   1.318       .  A
N36         Mn43   2.249       .  S
N37          C46   1.363       .  A
N38          N39   1.326       .  A
N38         Mn42   2.236       .  S
N39          C46   1.360       .  A
N40          N41   1.331       .  A
N40         Mn43   2.251       .  S
N41          C45   1.363       .  A
Mn42        Cl44   2.564       .  S
Mn43        Cl44   2.603       .  S
C45          C47   1.549       .  S
C46          C51   1.563       .  S
C47        C2209   1.567       .  S
C47        C2229   1.561       .  S
C47        C2249   1.567       .  S
C48        C2149   1.558       .  S
C48        C2169   1.558       .  S
C48        C2189   1.567       .  S
C49        C2098   1.566       .  S
C49        C2109   1.572       .  S
C49        C2138   1.574       .  S
C50        C2029   1.574       .  S
C50        C2049   1.569       .  S
C50        C2069   1.581       .  S
C51        C1969   1.564       .  S
C51        C1989   1.561       .  S
C51        C2018   1.570       .  S
C52        C1909   1.575       .  S
C52        C1929   1.567       .  S
C52        C1958   1.571       .  S
C53        C1849   1.564       .  S
C53        C1878   1.585       .  S
C53        C1889   1.570       .  S
C54          C55   1.414   1_556  A
C54          C59   1.406       .  A
C54        C1838   1.484       .  S
C55          C56   1.401       .  A
C55        C1789   1.480       .  S
C56          C57   1.403       .  A
C56          H61   1.084       .  S
C57          C58   1.423       .  A
C57        C1818   1.488       .  S
C58          C59   1.407   1_554  A
C58        C1769   1.490   1_554  S
C59          H60   1.084       .  S
C62          C63   1.418       .  A
C62          C67   1.402       .  A
C62        C1718   1.485       .  S
C63          C64   1.410   1_545  A
C63        C1758   1.491       .  S
C64          C65   1.408   1_565  A
C64          H69   1.083       .  S
C65          C66   1.415       .  A
C65        C1698   1.491   1_545  S
C66          C67   1.403       .  A
C66        C1729   1.479       .  S
C67          H68   1.083       .  S
C70          C71   1.417   1_455  A
C70          C75   1.405       .  A
C70        C1669   1.485       .  S
C71          C72   1.405       .  A
C71        C1638   1.485       .  S
C72          C73   1.405       .  A
C72          H77   1.083       .  S
C73          C74   1.416       .  A
C73        C1649   1.487       .  S
C74          C75   1.406   1_655  A
C74        C1609   1.483   1_655  S
C75          H76   1.083       .  S
C78          C79   1.415       .  A
C78          C83   1.405       .  A
C78        C2198   1.490       .  S
C79          C80   1.404       .  A
C79        C2009   1.476       .  S
C80          C81   1.402       .  A
C80          H85   1.084       .  S
C81          C82   1.416       .  A
C81        C1578   1.486       .  S
C82          C83   1.408       .  A
C82        C1589   1.482       .  S
C83          H84   1.083       .  S
C86          C87   1.423       .  A
C86          C91   1.403       .  A
C86        C1949   1.489       .  S
C87          C88   1.408       .  A
C87        C2178   1.492       .  S
C88          C89   1.405       .  A
C88          H93   1.083       .  S
C89          C90   1.411       .  A
C89        C1549   1.485       .  S
C90          C91   1.400       .  A
C90        C1529   1.476       .  S
C91          H92   1.083       .  S
C94          C95   1.428       .  A
C94          C99   1.407       .  A
C94        C2158   1.493       .  S
C95          C96   1.411       .  A
C95        C2078   1.498       .  S
C96          C97   1.407       .  A
C96         H101   1.084       .  S
C97          C98   1.412       .  A
C97        C1509   1.488       .  S
C98          C99   1.401       .  A
C98        C1489   1.480       .  S
C99         H100   1.084       .  S
C102        C103   1.423   1_556  A
C102        C107   1.405       .  A
C102       C1469   1.484       .  S
C103        C104   1.406       .  A
C103       C1449   1.496       .  S
C104        C105   1.407       .  A
C104        H109   1.083       .  S
C105        C106   1.414   1_554  A
C105       C1418   1.481       .  S
C106        C107   1.402       .  A
C106       C1438   1.485       .  S
C107        H108   1.083       .  S
C110        C111   1.415       .  A
C110        C115   1.401       .  A
C110       C1369   1.487       .  S
C111        C112   1.405   1_554  A
C111       C1389   1.480   1_554  S
C112        C113   1.407   1_556  A
C112        H117   1.084       .  S
C113        C114   1.422       .  A
C113       C1349   1.494   1_554  S
C114        C115   1.406       .  A
C114       C1329   1.484       .  S
C115        H116   1.084       .  S
C118        C119   1.415       .  A
C118        C123   1.398   1_655  A
C118       C1318   1.476   1_655  S
C119        C120   1.411       .  A
C119       C1289   1.488       .  S
C120        C121   1.409       .  A
C120        H125   1.083       .  S
C121        C122   1.416       .  A
C121       C1269   1.489       .  S
C122        C123   1.398   1_655  A
C122       C1249   1.477   1_655  S
C123        H124   1.084       .  S
C126        C127   1.416       .  A
C126        C131   1.405       .  A
C126       C1978   1.484       .  S
C127        C128   1.403       .  A
C127       C2129   1.483       .  S
C128        C129   1.404       .  A
C128        H133   1.084       .  S
C129        C130   1.416       .  A
C129       C1209   1.479       .  S
C130        C131   1.405       .  A
C130       C1229   1.487       .  S
C131        H132   1.083       .  S
C134        C135   1.418       .  A
C134        C139   1.405       .  A
C134       C1938   1.485       .  S
C135        C136   1.401       .  A
C135       C2318   1.484       .  S
C136        C137   1.401       .  A
C136        H141   1.083       .  S
C137        C138   1.415       .  A
C137       C1169   1.479       .  S
C138        C139   1.405       .  A
C138       C1189   1.482       .  S
C139        H140   1.084       .  S
C142        C163   1.558       .  S
C142       C1109   1.565       .  S
C142       C1129   1.571       .  S
C142       C1149   1.564       .  S
N143        N144   1.325       .  A
N143        N149   1.317       .  A
N143       Mn172   2.250   1_556  S
N144        C151   1.359       .  A
N145        N147   1.320       .  A
N145        N146   1.329       .  A
N145       Mn161   2.269   1_455  S
N146        C152   1.364       .  A
N147        N148   1.327       .  A
N147       Mn172   2.235       .  S
N148        C152   1.359       .  A
N149        N150   1.329       .  A
N149       Mn161   2.236   1_456  S
N150        C151   1.362       .  A
C151        C190   1.563       .  S
C152        C201   1.565       .  S
N153        N159   1.321       .  A
N153        N154   1.329       .  A
N153       Mn183   2.256       .  S
N154        C162   1.362       .  A
N155        N156   1.328       .  A
N155        N157   1.318       .  A
N155       Mn161   2.255   1_556  S
N156        C163   1.359       .  A
N157        N158   1.324       .  A
N157       Mn183   2.230   1_556  S
N158        C163   1.358       .  A
N159        N160   1.326       .  A
N159       Mn161   2.244       .  S
N160        C162   1.358       .  A
Mn161      Cl185   2.574       .  S
C162        C192   1.548       .  S
N164        N165   1.331       .  A
N164        N170   1.320       .  A
N164       Mn172   2.244       .  S
N165        C173   1.360       .  A
N166        N168   1.320       .  A
N166        N167   1.327       .  A
N166       Mn184   2.246   1_456  S
N167        C174   1.360       .  A
N168        N169   1.325       .  A
N168       Mn172   2.234   1_556  S
N169        C174   1.359       .  A
N170        N171   1.322       .  A
N170       Mn184   2.242   1_455  S
N171        C173   1.358       .  A
Mn172      Cl185   2.582   1_455  S
C173        C202   1.556       .  S
C174        C189   1.541       .  S
N175        N176   1.329       .  A
N175        N181   1.318       .  A
N175       Mn183   2.255   1_556  S
N176        C186   1.364       .  A
N177        N178   1.332       .  A
N177        N179   1.320       .  A
N177       Mn184   2.272       .  S
N178        C187   1.366       .  A
N179        N180   1.328       .  A
N179       Mn183   2.249       .  S
N180        C187   1.360       .  A
N181        N182   1.327       .  A
N181       Mn184   2.239   1_556  S
N182        C186   1.360       .  A
Mn183      Cl185   2.583       .  S
Mn184      Cl185   2.570       .  S
C186        C191   1.550       .  S
C187        C188   1.574       .  S
C188       C1238   1.580       .  S
C188       C1378   1.571       .  S
C188       C1658   1.568       .  S
C189       C1198   1.564       .  S
C189       C1309   1.556       .  S
C189       C1778   1.555       .  S
C190       C1098   1.575       .  S
C190       C1178   1.573       .  S
C190       C1429   1.568       .  S
C191       C1069   1.566       .  S
C191       C1298   1.562       .  S
C191       C1398   1.557       .  S
C192       C1038   1.555       .  S
C192       C1049   1.563       .  S
C192       C1218   1.561       .  S
C193        C194   1.422       .  A
C193        C198   1.413       .  A
C193       C1869   1.498       .  S
C194        C195   1.405       .  A
C194       C2218   1.490       .  S
C195        C196   1.401       .  A
C195        H200   1.084       .  S
C196        C197   1.416       .  A
C196       C1078   1.487       .  S
C197        C198   1.412       .  A
C197       C1158   1.490       .  S
C198        H199   1.083       .  S
C201       C1009   1.575       .  S
C201       C1409   1.567       .  S
C201       C1518   1.574       .  S
C202       C1498   1.575       .  S
C202       C1618   1.571       .  S
C202       C1809   1.570       .  S
C203        C204   1.414       .  A
C203        C208   1.404   1_545  A
C203        C998   1.478   1_545  S
C204        C205   1.398       .  A
C204        C969   1.479       .  S
C205        C206   1.400       .  A
C205        H210   1.083       .  S
C206        C207   1.418       .  A
C206        C949   1.475       .  S
C207        C208   1.403   1_545  A
C207        C938   1.487   1_545  S
C208        H209   1.083       .  S
C211        C212   1.417       .  A
C211        C216   1.408       .  A
C211       C2038   1.487       .  S
C212        C213   1.404       .  A
C212       C2118   1.486       .  S
C213        C214   1.404       .  A
C213        H218   1.083       .  S
C214        C215   1.415       .  A
C214        C909   1.479       .  S
C215        C216   1.408       .  A
C215        C889   1.490       .  S
C216        H217   1.083       .  S
C219        C220   1.413       .  A
C219        C224   1.410       .  A
C219       C2238   1.483       .  S
C220        C221   1.405       .  A
C220       C1918   1.490       .  S
C221        C222   1.409       .  A
C221        H226   1.084       .  S
C222        C223   1.422       .  A
C222        C849   1.488       .  S
C223        C224   1.409       .  A
C223        C869   1.498       .  S
C224        H225   1.084       .  S
C227        C248   1.568       .  S
C227        C829   1.574       .  S
C227        C878   1.580       .  S
C227       C1358   1.569       .  S
N228        N229   1.330       .  A
N228        N234   1.320       .  A
N228       Mn257   2.245   1_556  S
N229        C236   1.361       .  A
N230        N232   1.321       .  A
N230        N231   1.329       .  A
N230       Mn246   2.253   1_565  S
N231        C237   1.362       .  A
N232        N233   1.328       .  A
N232       Mn257   2.259       .  S
N233        C237   1.362       .  A
N234        N235   1.324       .  A
N234       Mn246   2.244   1_566  S
N235        C236   1.361       .  A
C236        C276   1.557       .  S
C237        C273   1.568       .  S
N238        N244   1.317       .  A
N238        N239   1.327       .  A
N238       Mn268   2.231       .  S
N239        C247   1.357       .  A
N240        N241   1.329       .  A
N240        N242   1.319       .  A
N240       Mn246   2.264   1_556  S
N241        C248   1.363       .  A
N242        N243   1.329       .  A
N242       Mn268   2.242   1_556  S
N243        C248   1.360       .  A
N244        N245   1.323       .  A
N244       Mn246   2.237       .  S
N245        C247   1.361       .  A
Mn246      Cl270   2.570       .  S
C247        C287   1.556       .  S
N249        N250   1.332       .  A
N249        N255   1.321       .  A
N249       Mn257   2.275       .  S
N250        C258   1.366       .  A
N251        N253   1.318       .  A
N251        N252   1.330       .  A
N251       Mn269   2.248   1_566  S
N252        C259   1.364       .  A
N253        N254   1.325       .  A
N253       Mn257   2.244   1_556  S
N254        C259   1.358       .  A
N255        N256   1.330       .  A
N255       Mn269   2.258   1_565  S
N256        C258   1.362       .  A
Mn257      Cl270   2.583   1_565  S
C258        C277   1.563       .  S
C259        C274   1.559       .  S
N260        N261   1.322       .  A
N260        N266   1.319       .  A
N260       Mn268   2.234   1_556  S
N261        C271   1.359       .  A
N262        N263   1.324       .  A
N262        N264   1.319       .  A
N262       Mn269   2.240       .  S
N263        C272   1.358       .  A
N264        N265   1.326       .  A
N264       Mn268   2.232       .  S
N265        C272   1.360       .  A
N266        N267   1.330       .  A
N266       Mn269   2.246   1_556  S
N267        C271   1.361       .  A
Mn268      Cl270   2.581       .  S
Mn269      Cl270   2.579       .  S
C271        C275   1.556       .  S
C272        C286   1.552       .  S
C273        C789   1.565       .  S
C273        C818   1.572       .  S
C273        C918   1.577       .  S
C274        C769   1.583       .  S
C274        C989   1.567       .  S
C274       C1478   1.564       .  S
C275        C858   1.563       .  S
C275        C978   1.569       .  S
C275       C1829   1.561       .  S
C276        C709   1.560       .  S
C276        C729   1.558       .  S
C276        C758   1.572       .  S
C277        C898   1.565       .  S
C277       C1458   1.558       .  S
C277       C1689   1.573       .  S
C278        C279   1.416       .  A
C278        C283   1.405       .  A
C278       C1858   1.480       .  S
C279        C280   1.400       .  A
C279       C2278   1.484       .  S
C280        C281   1.401       .  A
C280        H285   1.083       .  S
C281        C282   1.418       .  A
C281        C778   1.481       .  S
C282        C283   1.405       .  A
C282        C749   1.485       .  S
C283        H284   1.083       .  S
C286       C1598   1.569       .  S
C286       C1738   1.571       .  S
C286       C1798   1.561       .  S
C287        C698   1.559       .  S
C287       C1338   1.566       .  S
C287       C1569   1.574       .  S
C288        C289   1.416       .  A
C288        C293   1.405   1_655  A
C288       C1018   1.482   1_655  S
C289        C290   1.404       .  A
C289       C1058   1.488       .  S
C290        C291   1.406       .  A
C290        H295   1.083       .  S
C291        C292   1.417       .  A
C291        C669   1.484       .  S
C292        C293   1.406   1_655  A
C292        C649   1.486   1_655  S
C293        H294   1.084       .  S
C296        C297   1.415       .  A
C296        C301   1.406       .  A
C296        C809   1.488   1_545  S
C297        C298   1.400       .  A
C297        C689   1.478       .  S
C298        C299   1.401       .  A
C298        H303   1.084       .  S
C299        C300   1.422       .  A
C299        C638   1.483       .  S
C300        C301   1.410       .  A
C300        C609   1.492       .  S
C301        H302   1.083   1_545  S
C304        C305   1.415       .  A
C304        C309   1.408       .  A
C304       C1998   1.485       .  S
C305        C306   1.403       .  A
C305       C2258   1.485       .  S
C306        C307   1.404       .  A
C306        H311   1.084       .  S
C307        C308   1.420       .  A
C307        C589   1.486       .  S
C308        C309   1.409       .  A
C308        C569   1.492       .  S
C309        H310   1.084       .  S
C312        C313   1.414       .  A
C312        C317   1.407       .  A
C312       C2058   1.488       .  S
C313        C314   1.409       .  A
C313       C2289   1.493       .  S
C314        C315   1.411       .  A
C314        H319   1.083       .  S
C315        C316   1.424       .  A
C315        C558   1.492       .  S
C316        C317   1.411       .  A
C316        C538   1.502       .  S
C317        H318   1.083       .  S
C320        C341   1.567       .  S
C320        C578   1.579       .  S
C320        C629   1.561       .  S
C320       C1629   1.557       .  S
N321        N322   1.331       .  A
N321        N327   1.320       .  A
N321       Mn350   2.273       .  S
N322        C329   1.366       .  A
N323        N325   1.318       .  A
N323        N324   1.320       .  A
N323       Mn339   2.230   1_565  S
N324        C330   1.356       .  A
N325        N326   1.327       .  A
N325       Mn350   2.223   1_565  S
N326        C330   1.357       .  A
N327        N328   1.323       .  A
N327       Mn339   2.219       .  S
N328        C329   1.353       .  A
C329        C369   1.555       .  S
C330        C370   1.545       .  S
N331        N337   1.318       .  A
N331        N332   1.329       .  A
N331       Mn361   2.253   1_565  S
N332        C340   1.363       .  A
N333        N334   1.330       .  A
N333        N335   1.318       .  A
N333       Mn339   2.237       .  S
N334        C341   1.360       .  A
N335        N336   1.326       .  A
N335       Mn361   2.255       .  S
N336        C341   1.365       .  A
N337        N338   1.325       .  A
N337       Mn339   2.232   1_565  S
N338        C340   1.359       .  A
Mn339      Cl363   2.569       .  S
C340        C366   1.548       .  S
N342        N343   1.332       .  A
N342        N348   1.321       .  A
N342       Mn350   2.263   1_465  S
N343        C351   1.363       .  A
N344        N346   1.320       .  A
N344        N345   1.327       .  A
N344       Mn362   2.241       .  S
N345        C352   1.359       .  A
N346        N347   1.324       .  A
N346       Mn350   2.238   1_455  S
N347        C352   1.360       .  A
N348        N349   1.329       .  A
N348       Mn362   2.261   1_565  S
N349        C351   1.363       .  A
Mn350      Cl363   2.587       .  S
C351        C368   1.562       .  S
C352        C380   1.538       .  S
N353        N354   1.326       .  A
N353        N359   1.319       .  A
N353       Mn361   2.249   1_455  S
N354        C364   1.360       .  A
N355        N356   1.328       .  A
N355        N357   1.319       .  A
N355       Mn362   2.250   1_565  S
N356        C365   1.362       .  A
N357        N358   1.326       .  A
N357       Mn361   2.241   1_465  S
N358        C365   1.359       .  A
N359        N360   1.330       .  A
N359       Mn362   2.257       .  S
N360        C364   1.363       .  A
Mn361      Cl363   2.578       .  S
Mn362      Cl363   2.573   1_455  S
C364        C379   1.564       .  S
C365        C367   1.550       .  S
C366        C509   1.565       .  S
C366        C618   1.557       .  S
C366        C678   1.560       .  S
C367        C529   1.568       .  S
C367        C658   1.565       .  S
C367       C1749   1.559       .  S
C368        C489   1.564       .  S
C368        C549   1.575       .  S
C368        C929   1.560       .  S
C369        C478   1.562       .  S
C369        C598   1.577       .  S
C369       C1278   1.566       .  S
C370        C409   1.570       .  S
C370        C429   1.564       .  S
C370        C458   1.569       .  S
C371        C372   1.416       .  A
C371        C376   1.403       .  A
C371       C2089   1.478       .  S
C372        C373   1.404       .  A
C372       C1898   1.487       .  S
C373        C374   1.405       .  A
C373        H378   1.084       .  S
C374        C375   1.416       .  A
C374        C449   1.478       .  S
C375        C376   1.402       .  A
C375        C518   1.486       .  S
C376        H377   1.083       .  S
C379       C1558   1.576       .  S
C379       C1678   1.575       .  S
C379       C1709   1.569       .  S
C380        C958   1.553       .  S
C380       C1258   1.556       .  S
C380       C1538   1.560       .  S
C381        C382   1.413       .  A
C381        C386   1.403       .  A
C381       C1089   1.484       .  S
C382        C383   1.399       .  A
C382       C1138   1.472       .  S
C383        C384   1.400       .  A
C383        H388   1.083       .  S
C384        C385   1.414       .  A
C384        C418   1.477       .  S
C385        C386   1.405       .  A
C385        C498   1.480       .  S
C386        H387   1.083   1_655  S
C389        C390   1.415       .  A
C389        C394   1.404       .  A
C389        C718   1.483       .  S
C390        C391   1.403       .  A
C390        C838   1.485       .  S
C391        C392   1.407       .  A
C391        H396   1.083       .  S
C392        C393   1.423       .  A
C392        C469   1.489       .  S
C393        C394   1.406       .  A
C393        C438   1.489       .  S
C394        H395   1.084   1_545  S
C397        C398   1.415   1_556  A
C397        C402   1.398       .  A
C397       C1118   1.479       .  S
C398        C399   1.403       .  A
C398       C1029   1.478       .  S
C399        C400   1.403       .  A
C399        H404   1.084       .  S
C400        C401   1.415       .  A
C400        C798   1.482       .  S
C401        C402   1.400   1_554  A
C401        C738   1.472   1_554  S
C402        H403   1.084       .  S
C405        C406   1.391       .  A
C405        C410   1.380       .  A
C405        H415   1.084       .  S
C406        C407   1.409       .  A
C406        C411   1.484       .  S
C407        C408   1.410       .  A
C407        F412   1.356       .  S
C408        C409   1.414       .  A
C408        H413   1.075       .  S
C409        C410   1.427       .  A
C410        F414   1.357       .  S
C411        C416   1.406       .  A
C411        C420   1.409       .  A
C416        C417   1.401       .  A
C416        F421   1.357       .  S
C417        C418   1.406       .  A
C417        H422   1.083       .  S
C418        C419   1.398       .  A
C419        C420   1.391       .  A
C419        F423   1.357       .  S
C420        H424   1.083       .  S
C425        C426   1.407       .  A
C425        C430   1.398       .  A
C425        H435   1.081   1_565  S
C426        C427   1.409       .  A
C426        C431   1.501       .  S
C427        C428   1.398       .  A
C427        F432   1.357       .  S
C428        C429   1.417       .  A
C428        H433   1.071       .  S
C429        C430   1.420       .  A
C430        F434   1.357       .  S
C431        C436   1.416       .  A
C431        C440   1.409   1_565  A
C436        C437   1.401       .  A
C436        F441   1.357       .  S
C437        C438   1.400   1_565  A
C437        H442   1.084       .  S
C438        C439   1.405       .  A
C439        C440   1.396       .  A
C439        F443   1.357       .  S
C440        H444   1.081       .  S
C445        C446   1.408       .  A
C445        C450   1.395       .  A
C445        H455   1.081       .  S
C446        C447   1.414       .  A
C446        C451   1.494       .  S
C447        C448   1.400       .  A
C447        F452   1.357       .  S
C448        C449   1.400       .  A
C448        H453   1.083       .  S
C449        C450   1.403       .  A
C450        F454   1.358       .  S
C451        C456   1.406       .  A
C451        C460   1.409       .  A
C456        C457   1.390       .  A
C456        F461   1.356       .  S
C457        C458   1.416       .  A
C457        H462   1.082       .  S
C458        C459   1.415       .  A
C459        C460   1.404       .  A
C459        F463   1.357       .  S
C460        H464   1.083       .  S
C465        C466   1.408       .  A
C465        C470   1.404       .  A
C465        H475   1.082       .  S
C466        C467   1.414       .  A
C466        C471   1.498       .  S
C467        C468   1.397       .  A
C467        F472   1.357       .  S
C468        C469   1.399       .  A
C468        H473   1.083       .  S
C469        C470   1.409       .  A
C470        F474   1.357       .  S
C471        C476   1.413       .  A
C471        C480   1.396       .  A
C476        C477   1.409       .  A
C476        F481   1.349       .  S
C477        C478   1.409       .  A
C477        H482   1.082       .  S
C478        C479   1.425       .  A
C479        C480   1.388       .  A
C479        F483   1.358       .  S
C480        H484   1.083       .  S
C485        C486   1.388       .  A
C485        C490   1.380       .  A
C485        H495   1.084       .  S
C486        C487   1.413       .  A
C486        C491   1.487       .  S
C487        C488   1.416       .  A
C487        F492   1.356   1_455  S
C488        C489   1.413       .  A
C488        H493   1.081       .  S
C489        C490   1.427       .  A
C490        F494   1.352       .  S
C491        C496   1.403   1_455  A
C491        C500   1.411       .  A
C496        C497   1.402       .  A
C496        F501   1.356       .  S
C497        C498   1.406       .  A
C497        H502   1.084       .  S
C498        C499   1.399   1_655  A
C499        C500   1.396       .  A
C499        F503   1.358       .  S
C500        H504   1.084       .  S
C505        C506   1.408       .  A
C505        C510   1.412       .  A
C505        H515   1.077       .  S
C506        C507   1.392       .  A
C506        C511   1.484       .  S
C507        C508   1.388       .  A
C507        F512   1.359       .  S
C508        C509   1.422       .  A
C508        H513   1.055       .  S
C509        C510   1.420       .  A
C510        F514   1.356       .  S
C511        C516   1.406       .  A
C511        C520   1.405       .  A
C516        C517   1.404       .  A
C516        F521   1.357       .  S
C517        C518   1.406       .  A
C517        H522   1.083       .  S
C518        C519   1.404       .  A
C519        C520   1.397       .  A
C519        F523   1.358       .  S
C520        H524   1.084       .  S
C525        C526   1.402       .  A
C525        C530   1.392       .  A
C525        H535   1.081       .  S
C526        C527   1.416       .  A
C526        C531   1.516       .  S
C527        C528   1.412       .  A
C527        F532   1.356       .  S
C528        C529   1.417       .  A
C528        H533   1.082       .  S
C529        C530   1.425       .  A
C530        F534   1.352       .  S
C531        C536   1.421       .  A
C531        C540   1.410       .  A
C536        C537   1.402       .  A
C536        F541   1.357       .  S
C537        C538   1.399       .  A
C537        H542   1.083       .  S
C538        C539   1.410       .  A
C539        C540   1.403       .  A
C539        F543   1.357       .  S
C540        H544   1.078       .  S
C545        C546   1.387       .  A
C545        C550   1.393       .  A
C545        H555   1.085       .  S
C546        C547   1.401       .  A
C546        C551   1.480       .  S
C547        C548   1.405       .  A
C547        F552   1.354       .  S
C548        C549   1.418       .  A
C548        H553   1.083       .  S
C549        C550   1.435       .  A
C550        F554   1.347       .  S
C551        C556   1.401       .  A
C551        C560   1.406       .  A
C556        C557   1.399       .  A
C556        F561   1.357       .  S
C557        C558   1.409       .  A
C557        H562   1.084       .  S
C558        C559   1.406       .  A
C559        C560   1.404       .  A
C559        F563   1.357       .  S
C560        H564   1.084       .  S
C565        C566   1.408       .  A
C565        C570   1.406       .  A
C565        H575   1.083       .  S
C566        C567   1.407       .  A
C566        C571   1.492       .  S
C567        C568   1.400       .  A
C567        F572   1.357       .  S
C568        C569   1.405       .  A
C568        H573   1.083       .  S
C569        C570   1.407       .  A
C570        F574   1.357       .  S
C571        C576   1.401       .  A
C571        C580   1.392       .  A
C576        C577   1.403       .  A
C576        F581   1.353       .  S
C577        C578   1.423       .  A
C577        H582   1.080       .  S
C578        C579   1.435       .  A
C579        C580   1.397       .  A
C579        F583   1.347       .  S
C580        H584   1.084       .  S
C585        C586   1.415       .  A
C585        C590   1.400       .  A
C585        H595   1.080       .  S
C586        C587   1.418       .  A
C586        C591   1.512       .  S
C587        C588   1.399       .  A
C587        F592   1.353       .  S
C588        C589   1.401       .  A
C588        H593   1.083       .  S
C589        C590   1.399       .  A
C590        F594   1.357       .  S
C591        C596   1.412       .  A
C591        C600   1.405       .  A
C596        C597   1.402       .  A
C596        F601   1.357       .  S
C597        C598   1.416       .  A
C597        H602   1.063       .  S
C598        C599   1.427       .  A
C599        C600   1.400       .  A
C599        F603   1.357       .  S
C600        H604   1.075       .  S
C605        C606   1.411       .  A
C605        C610   1.401       .  A
C605        H615   1.082       .  S
C606        C607   1.408   1_565  A
C606        C611   1.494       .  S
C607        C608   1.400       .  A
C607        F612   1.357       .  S
C608        C609   1.406       .  A
C608        H613   1.082       .  S
C609        C610   1.402   1_545  A
C610        F614   1.357       .  S
C611        C616   1.409       .  A
C611        C620   1.408       .  A
C616        C617   1.396       .  A
C616        F621   1.358       .  S
C617        C618   1.409       .  A
C617        H622   1.086       .  S
C618        C619   1.416       .  A
C619        C620   1.403       .  A
C619        F623   1.357       .  S
C620        H624   1.082       .  S
C625        C626   1.393       .  A
C625        C630   1.387       .  A
C625        H635   1.083       .  S
C626        C627   1.413       .  A
C626        C631   1.497       .  S
C627        C628   1.409       .  A
C627        F632   1.349       .  S
C628        C629   1.407       .  A
C628        H633   1.081       .  S
C629        C630   1.427       .  A
C630        F634   1.355       .  S
C631        C636   1.416       .  A
C631        C640   1.407       .  A
C636        C637   1.398       .  A
C636        F641   1.358       .  S
C637        C638   1.399       .  A
C637        H642   1.084       .  S
C638        C639   1.404       .  A
C639        C640   1.401       .  A
C639        F643   1.357       .  S
C640        H644   1.082       .  S
C645        C646   1.405       .  A
C645        C650   1.403       .  A
C645        H655   1.083       .  S
C646        C647   1.406       .  A
C646        C651   1.484       .  S
C647        C648   1.399       .  A
C647        F652   1.357       .  S
C648        C649   1.404       .  A
C648        H653   1.083       .  S
C649        C650   1.406       .  A
C650        F654   1.357       .  S
C651        C656   1.394       .  A
C651        C660   1.403       .  A
C656        C657   1.393       .  A
C656        F661   1.358       .  S
C657        C658   1.423       .  A
C657        H662   1.080       .  S
C658        C659   1.420       .  A
C659        C660   1.406       .  A
C659        F663   1.355       .  S
C660        H664   1.078   1_455  S
C665        C666   1.408       .  A
C665        C670   1.395       .  A
C665        H675   1.083       .  S
C666        C667   1.410       .  A
C666        C671   1.493       .  S
C667        C668   1.406       .  A
C667        F672   1.357       .  S
C668        C669   1.405       .  A
C668        H673   1.084       .  S
C669        C670   1.401       .  A
C670        F674   1.357       .  S
C671        C676   1.410       .  A
C671        C680   1.394       .  A
C676        C677   1.410       .  A
C676        F681   1.357       .  S
C677        C678   1.416       .  A
C677        H682   1.082       .  S
C678        C679   1.428       .  A
C679        C680   1.387       .  A
C679        F683   1.353       .  S
C680        H684   1.083       .  S
C685        C686   1.406       .  A
C685        C690   1.396       .  A
C685        H695   1.084       .  S
C686        C687   1.407       .  A
C686        C691   1.481       .  S
C687        C688   1.399       .  A
C687        F692   1.357       .  S
C688        C689   1.404       .  A
C688        H693   1.083       .  S
C689        C690   1.402       .  A
C690        F694   1.357       .  S
C691        C696   1.408       .  A
C691        C700   1.398       .  A
C696        C697   1.400       .  A
C696        F701   1.356       .  S
C697        C698   1.409       .  A
C697        H702   1.083       .  S
C698        C699   1.422       .  A
C699        C700   1.394       .  A
C699        F703   1.358       .  S
C700        H704   1.083       .  S
C705        C706   1.411       .  A
C705        C710   1.408       .  A
C705        H715   1.083   1_565  S
C706        C707   1.402       .  A
C706        C711   1.489       .  S
C707        C708   1.390       .  A
C707        F712   1.357       .  S
C708        C709   1.414       .  A
C708        H713   1.082       .  S
C709        C710   1.413       .  A
C710        F714   1.358       .  S
C711        C716   1.409       .  A
C711        C720   1.406   1_565  A
C716        C717   1.401       .  A
C716        F721   1.357       .  S
C717        C718   1.402   1_565  A
C717        H722   1.083       .  S
C718        C719   1.404       .  A
C719        C720   1.397       .  A
C719        F723   1.357       .  S
C720        H724   1.083       .  S
C725        C726   1.405       .  A
C725        C730   1.407       .  A
C725        H735   1.080   1_556  S
C726        C727   1.391       .  A
C726        C731   1.473       .  S
C727        C728   1.381       .  A
C727        F732   1.359       .  S
C728        C729   1.421       .  A
C728        H733   1.080       .  S
C729        C730   1.416       .  A
C730        F734   1.354       .  S
C731        C736   1.407       .  A
C731        C740   1.402       .  A
C736        C737   1.392       .  A
C736        F741   1.358       .  S
C737        C738   1.399       .  A
C737        H742   1.083       .  S
C738        C739   1.405       .  A
C739        C740   1.399       .  A
C739        F743   1.357       .  S
C740        H744   1.083       .  S
C745        C746   1.412       .  A
C745        C750   1.405       .  A
C745        H755   1.081       .  S
C746        C747   1.413       .  A
C746        C751   1.500       .  S
C747        C748   1.394       .  A
C747        F752   1.357       .  S
C748        C749   1.400       .  A
C748        H753   1.084       .  S
C749        C750   1.403       .  A
C750        F754   1.357       .  S
C751        C756   1.408       .  A
C751        C760   1.395       .  A
C756        C757   1.406       .  A
C756        F761   1.355       .  S
C757        C758   1.420       .  A
C757        H762   1.079       .  S
C758        C759   1.432       .  A
C759        C760   1.391       .  A
C759        F763   1.350       .  S
C760        H764   1.082       .  S
C765        C766   1.405       .  A
C765        C770   1.404       .  A
C765        H775   1.075       .  S
C766        C767   1.399       .  A
C766        C771   1.496       .  S
C767        C768   1.394       .  A
C767        F772   1.357       .  S
C768        C769   1.428       .  A
C768        H773   1.077       .  S
C769        C770   1.418       .  A
C770        F774   1.354       .  S
C771        C776   1.413       .  A
C771        C780   1.409       .  A
C776        C777   1.400       .  A
C776        F781   1.357       .  S
C777        C778   1.402       .  A
C777        H782   1.084       .  S
C778        C779   1.401       .  A
C779        C780   1.397       .  A
C779        F783   1.357       .  S
C780        H784   1.083       .  S
C785        C786   1.407       .  A
C785        C790   1.405       .  A
C785        H795   1.083       .  S
C786        C787   1.401       .  A
C786        C791   1.493       .  S
C787        C788   1.392       .  A
C787        F792   1.358       .  S
C788        C789   1.421       .  A
C788        H793   1.078       .  S
C789        C790   1.418       .  A
C790        F794   1.356       .  S
C791        C796   1.410       .  A
C791        C800   1.409       .  A
C796        C797   1.397       .  A
C796        F801   1.357       .  S
C797        C798   1.401       .  A
C797        H802   1.083       .  S
C798        C799   1.404       .  A
C799        C800   1.402       .  A
C799        F803   1.357       .  S
C800        H804   1.083       .  S
C805        C806   1.405       .  A
C805        C810   1.403       .  A
C805        H815   1.083       .  S
C806        C807   1.406       .  A
C806        C811   1.486       .  S
C807        C808   1.402   1_565  A
C807        F812   1.357   1_565  S
C808        C809   1.405   1_545  A
C808        H813   1.083       .  S
C809        C810   1.406       .  A
C810        F814   1.357       .  S
C811        C816   1.394       .  A
C811        C820   1.406       .  A
C816        C817   1.395       .  A
C816        F821   1.358       .  S
C817        C818   1.426       .  A
C817        H822   1.074       .  S
C818        C819   1.419       .  A
C819        C820   1.409       .  A
C819        F823   1.357       .  S
C820        H824   1.081   1_565  S
C825        C826   1.399       .  A
C825        C830   1.400       .  A
C825        H835   1.080       .  S
C826        C827   1.393       .  A
C826        C831   1.482       .  S
C827        C828   1.398       .  A
C827        F832   1.358       .  S
C828        C829   1.427       .  A
C828        H833   1.069       .  S
C829        C830   1.421       .  A
C830        F834   1.355       .  S
C831        C836   1.405       .  A
C831        C840   1.404       .  A
C836        C837   1.398       .  A
C836        F841   1.358       .  S
C837        C838   1.402       .  A
C837        H842   1.084       .  S
C838        C839   1.407       .  A
C839        C840   1.404       .  A
C839        F843   1.357       .  S
C840        H844   1.083       .  S
C845        C846   1.405       .  A
C845        C850   1.401       .  A
C845        H855   1.082       .  S
C846        C847   1.411       .  A
C846        C851   1.489       .  S
C847        C848   1.397       .  A
C847        F852   1.358       .  S
C848        C849   1.399       .  A
C848        H853   1.083       .  S
C849        C850   1.410       .  A
C850        F854   1.357       .  S
C851        C856   1.410       .  A
C851        C860   1.404       .  A
C856        C857   1.407       .  A
C856        F861   1.357       .  S
C857        C858   1.415       .  A
C857        H862   1.083       .  S
C858        C859   1.413       .  A
C859        C860   1.392       .  A
C859        F863   1.358       .  S
C860        H864   1.084       .  S
C865        C866   1.403       .  A
C865        C870   1.403       .  A
C865        H875   1.083       .  S
C866        C867   1.411       .  A
C866        C871   1.492       .  S
C867        C868   1.405       .  A
C867        F872   1.357       .  S
C868        C869   1.404       .  A
C868        H873   1.083       .  S
C869        C870   1.411       .  A
C870        F874   1.357       .  S
C871        C876   1.394       .  A
C871        C880   1.402       .  A
C876        C877   1.398       .  A
C876        F881   1.358       .  S
C877        C878   1.429       .  A
C877        H882   1.075       .  S
C878        C879   1.417       .  A
C879        C880   1.407       .  A
C879        F883   1.357       .  S
C880        H884   1.060       .  S
C885        C886   1.405       .  A
C885        C890   1.406       .  A
C885        H895   1.083       .  S
C886        C887   1.411       .  A
C886        C891   1.492       .  S
C887        C888   1.397       .  A
C887        F892   1.358       .  S
C888        C889   1.400       .  A
C888        H893   1.084       .  S
C889        C890   1.410       .  A
C890        F894   1.357       .  S
C891        C896   1.410       .  A
C891        C900   1.391       .  A
C896        C897   1.413       .  A
C896        F901   1.357       .  S
C897        C898   1.417       .  A
C897        H902   1.082       .  S
C898        C899   1.428       .  A
C899        C900   1.386       .  A
C899        F903   1.351       .  S
C900        H904   1.085       .  S
C905        C906   1.406       .  A
C905        C910   1.398       .  A
C905        H915   1.083       .  S
C906        C907   1.406       .  A
C906        C911   1.481       .  S
C907        C908   1.398       .  A
C907        F912   1.357       .  S
C908        C909   1.403       .  A
C908        H913   1.084       .  S
C909        C910   1.403       .  A
C910        F914   1.357       .  S
C911        C916   1.403       .  A
C911        C920   1.388       .  A
C916        C917   1.406       .  A
C916        F921   1.357       .  S
C917        C918   1.422       .  A
C917        H922   1.077       .  S
C918        C919   1.436       .  A
C919        C920   1.388       .  A
C919        F923   1.352       .  S
C920        H924   1.084       .  S
C925        C926   1.408       .  A
C925        C930   1.404       .  A
C925        H935   1.079       .  S
C926        C927   1.401       .  A
C926        C931   1.487       .  S
C927        C928   1.398       .  A
C927        F932   1.358       .  S
C928        C929   1.421       .  A
C928        H933   1.083       .  S
C929        C930   1.405       .  A
C930        F934   1.357       .  S
C931        C936   1.410       .  A
C931        C940   1.403       .  A
C936        C937   1.401       .  A
C936        F941   1.357       .  S
C937        C938   1.402       .  A
C937        H942   1.083       .  S
C938        C939   1.408   1_565  A
C939        C940   1.401   1_545  A
C939        F943   1.357       .  S
C940        H944   1.083   1_565  S
C945        C946   1.409       .  A
C945        C950   1.396       .  A
C945        H955   1.080       .  S
C946        C947   1.414       .  A
C946        C951   1.493       .  S
C947        C948   1.396       .  A
C947        F952   1.357       .  S
C948        C949   1.397       .  A
C948        H953   1.083       .  S
C949        C950   1.403       .  A
C950        F954   1.358       .  S
C951        C956   1.410       .  A
C951        C960   1.410       .  A
C956        C957   1.396       .  A
C956        F961   1.356       .  S
C957        C958   1.412       .  A
C957        H962   1.083       .  S
C958        C959   1.408       .  A
C959        C960   1.398       .  A
C959        F963   1.357       .  S
C960        H964   1.083       .  S
C965        C966   1.404       .  A
C965        C970   1.399       .  A
C965        H975   1.083       .  S
C966        C967   1.409       .  A
C966        C971   1.483       .  S
C967        C968   1.396       .  A
C967        F972   1.357       .  S
C968        C969   1.400       .  A
C968        H973   1.084       .  S
C969        C970   1.405       .  A
C970        F974   1.357       .  S
C971        C976   1.393       .  A
C971        C980   1.404       .  A
C976        C977   1.386       .  A
C976        F981   1.359       .  S
C977        C978   1.424       .  A
C977        H982   1.074       .  S
C978        C979   1.424       .  A
C979        C980   1.406       .  A
C979        F983   1.354       .  S
C980        H984   1.084       .  S
C985        C986   1.385       .  A
C985        C990   1.382       .  A
C985        H995   1.085       .  S
C986        C987   1.406       .  A
C986        C991   1.472       .  S
C987        C988   1.409       .  A
C987        F992   1.354   1_565  S
C988        C989   1.416       .  A
C988        H993   1.082       .  S
C989        C990   1.432       .  A
C990        F994   1.354       .  S
C991        C996   1.403       .  A
C991       C1000   1.403       .  A
C996        C997   1.398       .  A
C996       F1001   1.357       .  S
C997        C998   1.404       .  A
C997       H1002   1.083       .  S
C998        C999   1.404       .  A
C999       C1000   1.398       .  A
C999       F1003   1.357   1_565  S
C1000      H1004   1.083       .  S
C1005      C1006   1.388       .  A
C1005      C1010   1.384       .  A
C1005      H1015   1.083       .  S
C1006      C1007   1.407       .  A
C1006      C1011   1.485       .  S
C1007      C1008   1.410       .  A
C1007      F1012   1.357   1_455  S
C1008      C1009   1.421       .  A
C1008      H1013   1.079       .  S
C1009      C1010   1.433       .  A
C1010      F1014   1.349       .  S
C1011      C1016   1.409       .  A
C1011      C1020   1.406       .  A
C1016      C1017   1.396       .  A
C1016      F1021   1.358       .  S
C1017      C1018   1.402       .  A
C1017      H1022   1.084       .  S
C1018      C1019   1.405       .  A
C1019      C1020   1.402       .  A
C1019      F1023   1.357       .  S
C1020      H1024   1.083       .  S
C1025      C1026   1.407       .  A
C1025      C1030   1.398       .  A
C1025      H1035   1.083       .  S
C1026      C1027   1.407       .  A
C1026      C1031   1.484       .  S
C1027      C1028   1.398       .  A
C1027      F1032   1.357       .  S
C1028      C1029   1.404       .  A
C1028      H1033   1.083       .  S
C1029      C1030   1.401       .  A
C1030      F1034   1.357       .  S
C1031      C1036   1.404       .  A
C1031      C1040   1.408       .  A
C1036      C1037   1.395       .  A
C1036      F1041   1.357       .  S
C1037      C1038   1.413       .  A
C1037      H1042   1.082       .  S
C1038      C1039   1.414       .  A
C1039      C1040   1.402       .  A
C1039      F1043   1.357       .  S
C1040      H1044   1.083       .  S
C1045      C1046   1.408       .  A
C1045      C1050   1.414       .  A
C1045      H1055   1.083       .  S
C1046      C1047   1.392       .  A
C1046      C1051   1.482       .  S
C1047      C1048   1.384       .  A
C1047      F1052   1.358       .  S
C1048      C1049   1.419       .  A
C1048      H1053   1.076       .  S
C1049      C1050   1.418       .  A
C1050      F1054   1.355       .  S
C1051      C1056   1.405       .  A
C1051      C1060   1.404       .  A
C1056      C1057   1.405       .  A
C1056      F1061   1.357       .  S
C1057      C1058   1.407       .  A
C1057      H1062   1.083       .  S
C1058      C1059   1.404       .  A
C1059      C1060   1.396       .  A
C1059      F1063   1.357       .  S
C1060      H1064   1.084       .  S
C1065      C1066   1.403       .  A
C1065      C1070   1.404       .  A
C1065      H1075   1.082       .  S
C1066      C1067   1.396       .  A
C1066      C1071   1.487       .  S
C1067      C1068   1.396       .  A
C1067      F1072   1.358       .  S
C1068      C1069   1.423       .  A
C1068      H1073   1.072       .  S
C1069      C1070   1.420       .  A
C1070      F1074   1.357       .  S
C1071      C1076   1.407       .  A
C1071      C1080   1.405       .  A
C1076      C1077   1.402       .  A
C1076      F1081   1.358       .  S
C1077      C1078   1.405       .  A
C1077      H1082   1.083       .  S
C1078      C1079   1.404       .  A
C1079      C1080   1.400       .  A
C1079      F1083   1.357       .  S
C1080      H1084   1.084       .  S
C1085      C1086   1.406       .  A
C1085      C1090   1.395   1_455  A
C1085      H1095   1.083       .  S
C1086      C1087   1.409   1_455  A
C1086      C1091   1.490       .  S
C1087      C1088   1.405       .  A
C1087      F1092   1.357       .  S
C1088      C1089   1.405       .  A
C1088      H1093   1.083       .  S
C1089      C1090   1.401       .  A
C1090      F1094   1.357       .  S
C1091      C1096   1.397       .  A
C1091      C1100   1.408       .  A
C1096      C1097   1.387       .  A
C1096      F1101   1.359       .  S
C1097      C1098   1.422       .  A
C1097      H1102   1.074       .  S
C1098      C1099   1.422       .  A
C1099      C1100   1.412       .  A
C1099      F1103   1.357   1_455  S
C1100      H1104   1.083   1_455  S
C1105      C1106   1.389       .  A
C1105      C1110   1.393       .  A
C1105      H1115   1.084       .  S
C1106      C1107   1.399       .  A
C1106      C1111   1.476       .  S
C1107      C1108   1.399       .  A
C1107      F1112   1.354       .  S
C1108      C1109   1.418       .  A
C1108      H1113   1.082       .  S
C1109      C1110   1.434       .  A
C1110      F1114   1.349       .  S
C1111      C1116   1.406       .  A
C1111      C1120   1.402       .  A
C1116      C1117   1.400       .  A
C1116      F1121   1.357       .  S
C1117      C1118   1.403       .  A
C1117      H1122   1.083       .  S
C1118      C1119   1.405       .  A
C1119      C1120   1.397       .  A
C1119      F1123   1.357   1_556  S
C1120      H1124   1.083       .  S
C1125      C1126   1.404       .  A
C1125      C1130   1.407       .  A
C1125      H1135   1.084       .  S
C1126      C1127   1.393       .  A
C1126      C1131   1.480       .  S
C1127      C1128   1.381       .  A
C1127      F1132   1.359       .  S
C1128      C1129   1.422       .  A
C1128      H1133   1.078       .  S
C1129      C1130   1.424       .  A
C1130      F1134   1.348       .  S
C1131      C1136   1.408       .  A
C1131      C1140   1.405       .  A
C1136      C1137   1.401       .  A
C1136      F1141   1.357       .  S
C1137      C1138   1.403       .  A
C1137      H1142   1.084       .  S
C1138      C1139   1.401       .  A
C1139      C1140   1.389       .  A
C1139      F1143   1.358       .  S
C1140      H1144   1.083       .  S
C1145      C1146   1.404       .  A
C1145      C1150   1.401       .  A
C1145      H1155   1.082       .  S
C1146      C1147   1.412       .  A
C1146      C1151   1.496       .  S
C1147      C1148   1.406       .  A
C1147      F1152   1.357       .  S
C1148      C1149   1.407       .  A
C1148      H1153   1.083       .  S
C1149      C1150   1.418       .  A
C1150      F1154   1.358       .  S
C1151      C1156   1.410       .  A
C1151      C1160   1.408       .  A
C1156      C1157   1.406       .  A
C1156      F1161   1.357       .  S
C1157      C1158   1.406       .  A
C1157      H1162   1.083       .  S
C1158      C1159   1.404       .  A
C1159      C1160   1.400       .  A
C1159      F1163   1.357       .  S
C1160      H1164   1.083       .  S
C1165      C1166   1.406       .  A
C1165      C1170   1.399       .  A
C1165      H1175   1.083       .  S
C1166      C1167   1.411       .  A
C1166      C1171   1.488       .  S
C1167      C1168   1.398       .  A
C1167      F1172   1.357       .  S
C1168      C1169   1.399       .  A
C1168      H1173   1.084       .  S
C1169      C1170   1.405       .  A
C1170      F1174   1.358       .  S
C1171      C1176   1.399       .  A
C1171      C1180   1.402       .  A
C1176      C1177   1.395       .  A
C1176      F1181   1.358       .  S
C1177      C1178   1.425       .  A
C1177      H1182   1.076       .  S
C1178      C1179   1.424       .  A
C1179      C1180   1.401       .  A
C1179      F1183   1.353       .  S
C1180      H1184   1.084       .  S
C1185      C1186   1.405       .  A
C1185      C1190   1.395       .  A
C1185      H1195   1.083       .  S
C1186      C1187   1.408       .  A
C1186      C1191   1.485       .  S
C1187      C1188   1.403       .  A
C1187      F1192   1.357       .  S
C1188      C1189   1.405       .  A
C1188      H1193   1.083       .  S
C1189      C1190   1.403       .  A
C1190      F1194   1.358       .  S
C1191      C1196   1.395       .  A
C1191      C1200   1.405       .  A
C1196      C1197   1.386       .  A
C1196      F1201   1.358       .  S
C1197      C1198   1.420       .  A
C1197      H1202   1.076       .  S
C1198      C1199   1.422       .  A
C1199      C1200   1.409       .  A
C1199      F1203   1.356       .  S
C1200      H1204   1.083       .  S
C1205      C1206   1.404       .  A
C1205      C1210   1.398       .  A
C1205      H1215   1.083       .  S
C1206      C1207   1.410       .  A
C1206      C1211   1.484       .  S
C1207      C1208   1.398       .  A
C1207      F1212   1.358       .  S
C1208      C1209   1.401       .  A
C1208      H1213   1.083       .  S
C1209      C1210   1.405       .  A
C1210      F1214   1.357       .  S
C1211      C1216   1.406       .  A
C1211      C1220   1.391       .  A
C1216      C1217   1.404       .  A
C1216      F1221   1.357       .  S
C1217      C1218   1.415       .  A
C1217      H1222   1.083       .  S
C1218      C1219   1.431       .  A
C1219      C1220   1.388       .  A
C1219      F1223   1.352       .  S
C1220      H1224   1.084       .  S
C1225      C1226   1.405       .  A
C1225      C1230   1.399       .  A
C1225      H1235   1.083       .  S
C1226      C1227   1.411       .  A
C1226      C1231   1.492       .  S
C1227      C1228   1.403       .  A
C1227      F1232   1.357       .  S
C1228      C1229   1.403       .  A
C1228      H1233   1.083       .  S
C1229      C1230   1.405       .  A
C1230      F1234   1.357       .  S
C1231      C1236   1.405       .  A
C1231      C1240   1.392       .  A
C1236      C1237   1.405       .  A
C1236      F1241   1.356       .  S
C1237      C1238   1.420       .  A
C1237      H1242   1.078       .  S
C1238      C1239   1.438       .  A
C1239      C1240   1.395       .  A
C1239      F1243   1.352       .  S
C1240      H1244   1.084       .  S
C1245      C1246   1.407       .  A
C1245      C1250   1.395       .  A
C1245      H1255   1.083       .  S
C1246      C1247   1.410       .  A
C1246      C1251   1.487       .  S
C1247      C1248   1.398       .  A
C1247      F1252   1.357       .  S
C1248      C1249   1.401       .  A
C1248      H1253   1.084       .  S
C1249      C1250   1.402       .  A
C1250      F1254   1.358       .  S
C1251      C1256   1.399       .  A
C1251      C1260   1.404       .  A
C1256      C1257   1.390       .  A
C1256      F1261   1.358       .  S
C1257      C1258   1.419       .  A
C1257      H1262   1.078       .  S
C1258      C1259   1.419       .  A
C1259      C1260   1.402       .  A
C1259      F1263   1.356       .  S
C1260      H1264   1.081   1_455  S
C1265      C1266   1.411       .  A
C1265      C1270   1.396       .  A
C1265      H1275   1.081       .  S
C1266      C1267   1.416       .  A
C1266      C1271   1.506       .  S
C1267      C1268   1.407       .  A
C1267      F1272   1.356       .  S
C1268      C1269   1.403       .  A
C1268      H1273   1.083       .  S
C1269      C1270   1.402       .  A
C1270      F1274   1.357       .  S
C1271      C1276   1.417       .  A
C1271      C1280   1.404       .  A
C1276      C1277   1.411       .  A
C1276      F1281   1.356       .  S
C1277      C1278   1.410       .  A
C1277      H1282   1.084       .  S
C1278      C1279   1.419       .  A
C1279      C1280   1.389       .  A
C1279      F1283   1.358       .  S
C1280      H1284   1.081       .  S
C1285      C1286   1.408       .  A
C1285      C1290   1.398       .  A
C1285      H1295   1.083       .  S
C1286      C1287   1.406       .  A
C1286      C1291   1.489       .  S
C1287      C1288   1.403       .  A
C1287      F1292   1.357       .  S
C1288      C1289   1.407       .  A
C1288      H1293   1.083       .  S
C1289      C1290   1.403       .  A
C1290      F1294   1.357       .  S
C1291      C1296   1.394       .  A
C1291      C1300   1.408       .  A
C1296      C1297   1.384       .  A
C1296      F1301   1.358       .  S
C1297      C1298   1.422       .  A
C1297      H1302   1.080       .  S
C1298      C1299   1.412       .  A
C1299      C1300   1.411       .  A
C1299      F1303   1.355       .  S
C1300      H1304   1.072       .  S
C1305      C1306   1.391       .  A
C1305      C1310   1.385       .  A
C1305      H1315   1.084       .  S
C1306      C1307   1.406       .  A
C1306      C1311   1.483       .  S
C1307      C1308   1.405       .  A
C1307      F1312   1.355       .  S
C1308      C1309   1.415       .  A
C1308      H1313   1.081       .  S
C1309      C1310   1.430       .  A
C1310      F1314   1.352       .  S
C1311      C1316   1.408       .  A
C1311      C1320   1.407       .  A
C1316      C1317   1.401       .  A
C1316      F1321   1.356       .  S
C1317      C1318   1.402       .  A
C1317      H1322   1.083       .  S
C1318      C1319   1.401       .  A
C1319      C1320   1.392       .  A
C1319      F1323   1.358   1_455  S
C1320      H1324   1.083       .  S
C1325      C1326   1.407       .  A
C1325      C1330   1.398       .  A
C1325      H1335   1.081       .  S
C1326      C1327   1.416       .  A
C1326      C1331   1.495       .  S
C1327      C1328   1.397       .  A
C1327      F1332   1.358       .  S
C1328      C1329   1.398       .  A
C1328      H1333   1.084       .  S
C1329      C1330   1.406       .  A
C1330      F1334   1.357       .  S
C1331      C1336   1.406       .  A
C1331      C1340   1.399       .  A
C1336      C1337   1.401       .  A
C1336      F1341   1.356       .  S
C1337      C1338   1.418       .  A
C1337      H1342   1.082       .  S
C1338      C1339   1.429       .  A
C1339      C1340   1.392       .  A
C1339      F1343   1.349       .  S
C1340      H1344   1.083       .  S
C1345      C1346   1.410       .  A
C1345      C1350   1.401       .  A
C1345      H1355   1.083       .  S
C1346      C1347   1.405   1_556  A
C1346      C1351   1.493       .  S
C1347      C1348   1.404       .  A
C1347      F1352   1.357       .  S
C1348      C1349   1.409   1_554  A
C1348      H1353   1.083       .  S
C1349      C1350   1.403       .  A
C1350      F1354   1.358       .  S
C1351      C1356   1.397       .  A
C1351      C1360   1.407       .  A
C1356      C1357   1.391       .  A
C1356      F1361   1.358       .  S
C1357      C1358   1.426       .  A
C1357      H1362   1.079       .  S
C1358      C1359   1.419       .  A
C1359      C1360   1.409       .  A
C1359      F1363   1.356   1_556  S
C1360      H1364   1.079   1_556  S
C1365      C1366   1.402       .  A
C1365      C1370   1.398       .  A
C1365      H1375   1.083       .  S
C1366      C1367   1.407       .  A
C1366      C1371   1.482       .  S
C1367      C1368   1.405       .  A
C1367      F1372   1.357       .  S
C1368      C1369   1.406       .  A
C1368      H1373   1.083       .  S
C1369      C1370   1.405       .  A
C1370      F1374   1.357       .  S
C1371      C1376   1.394       .  A
C1371      C1380   1.402       .  A
C1376      C1377   1.397       .  A
C1376      F1381   1.358       .  S
C1377      C1378   1.427       .  A
C1377      H1382   1.076       .  S
C1378      C1379   1.418       .  A
C1379      C1380   1.404       .  A
C1379      F1383   1.356       .  S
C1380      H1384   1.079       .  S
C1385      C1386   1.405       .  A
C1385      C1390   1.396       .  A
C1385      H1395   1.083       .  S
C1386      C1387   1.408   1_556  A
C1386      C1391   1.484       .  S
C1387      C1388   1.401       .  A
C1387      F1392   1.357       .  S
C1388      C1389   1.404   1_554  A
C1388      H1393   1.083       .  S
C1389      C1390   1.402       .  A
C1390      F1394   1.357       .  S
C1391      C1396   1.402       .  A
C1391      C1400   1.409       .  A
C1396      C1397   1.394       .  A
C1396      F1401   1.357       .  S
C1397      C1398   1.417       .  A
C1397      H1402   1.083       .  S
C1398      C1399   1.408       .  A
C1399      C1400   1.402       .  A
C1399      F1403   1.357       .  S
C1400      H1404   1.083       .  S
C1405      C1406   1.397       .  A
C1405      C1410   1.393       .  A
C1405      H1415   1.084       .  S
C1406      C1407   1.406       .  A
C1406      C1411   1.492       .  S
C1407      C1408   1.405       .  A
C1407      F1412   1.357       .  S
C1408      C1409   1.419       .  A
C1408      H1413   1.083       .  S
C1409      C1410   1.430       .  A
C1410      F1414   1.349       .  S
C1411      C1416   1.409       .  A
C1411      C1420   1.409       .  A
C1416      C1417   1.395       .  A
C1416      F1421   1.357       .  S
C1417      C1418   1.401       .  A
C1417      H1422   1.084       .  S
C1418      C1419   1.404       .  A
C1419      C1420   1.403       .  A
C1419      F1423   1.357       .  S
C1420      H1424   1.083       .  S
C1425      C1426   1.404       .  A
C1425      C1430   1.406       .  A
C1425      H1435   1.082       .  S
C1426      C1427   1.397       .  A
C1426      C1431   1.488       .  S
C1427      C1428   1.394       .  A
C1427      F1432   1.358       .  S
C1428      C1429   1.426       .  A
C1428      H1433   1.078       .  S
C1429      C1430   1.420       .  A
C1430      F1434   1.356       .  S
C1431      C1436   1.408       .  A
C1431      C1440   1.405       .  A
C1436      C1437   1.402       .  A
C1436      F1441   1.357       .  S
C1437      C1438   1.403       .  A
C1437      H1442   1.083       .  S
C1438      C1439   1.405       .  A
C1439      C1440   1.399       .  A
C1439      F1443   1.357       .  S
C1440      H1444   1.083       .  S
C1445      C1446   1.415       .  A
C1445      C1450   1.406       .  A
C1445      H1455   1.081       .  S
C1446      C1447   1.412       .  A
C1446      C1451   1.509       .  S
C1447      C1448   1.400       .  A
C1447      F1452   1.355       .  S
C1448      C1449   1.405       .  A
C1448      H1453   1.083       .  S
C1449      C1450   1.404       .  A
C1450      F1454   1.357       .  S
C1451      C1456   1.415       .  A
C1451      C1460   1.411       .  A
C1456      C1457   1.404       .  A
C1456      F1461   1.356       .  S
C1457      C1458   1.408       .  A
C1457      H1462   1.082       .  S
C1458      C1459   1.413       .  A
C1459      C1460   1.402       .  A
C1459      F1463   1.357       .  S
C1460      H1464   1.079       .  S
C1465      C1466   1.418       .  A
C1465      C1470   1.399       .  A
C1465      H1475   1.079       .  S
C1466      C1467   1.419       .  A
C1466      C1471   1.516       .  S
C1467      C1468   1.396       .  A
C1467      F1472   1.350   1_556  S
C1468      C1469   1.400       .  A
C1468      H1473   1.083   1_556  S
C1469      C1470   1.397       .  A
C1470      F1474   1.357       .  S
C1471      C1476   1.415       .  A
C1471      C1480   1.412       .  A
C1476      C1477   1.395       .  A
C1476      F1481   1.357       .  S
C1477      C1478   1.414       .  A
C1477      H1482   1.072       .  S
C1478      C1479   1.417       .  A
C1479      C1480   1.400       .  A
C1479      F1483   1.356       .  S
C1480      H1484   1.075       .  S
C1485      C1486   1.405       .  A
C1485      C1490   1.405       .  A
C1485      H1495   1.082       .  S
C1486      C1487   1.410       .  A
C1486      C1491   1.485       .  S
C1487      C1488   1.392       .  A
C1487      F1492   1.358       .  S
C1488      C1489   1.398       .  A
C1488      H1493   1.084       .  S
C1489      C1490   1.408       .  A
C1490      F1494   1.357       .  S
C1491      C1496   1.408       .  A
C1491      C1500   1.389       .  A
C1496      C1497   1.414       .  A
C1496      F1501   1.356       .  S
C1497      C1498   1.416       .  A
C1497      H1502   1.075       .  S
C1498      C1499   1.429       .  A
C1499      C1500   1.382       .  A
C1499      F1503   1.357       .  S
C1500      H1504   1.084       .  S
C1505      C1506   1.409       .  A
C1505      C1510   1.406       .  A
C1505      H1515   1.082       .  S
C1506      C1507   1.414       .  A
C1506      C1511   1.500       .  S
C1507      C1508   1.397       .  A
C1507      F1512   1.358       .  S
C1508      C1509   1.399       .  A
C1508      H1513   1.084       .  S
C1509      C1510   1.407       .  A
C1510      F1514   1.357       .  S
C1511      C1516   1.413       .  A
C1511      C1520   1.394       .  A
C1516      C1517   1.412       .  A
C1516      F1521   1.356       .  S
C1517      C1518   1.420       .  A
C1517      H1522   1.081       .  S
C1518      C1519   1.432       .  A
C1519      C1520   1.387       .  A
C1519      F1523   1.352       .  S
C1520      H1524   1.082       .  S
C1525      C1526   1.401       .  A
C1525      C1530   1.399       .  A
C1525      H1535   1.084       .  S
C1526      C1527   1.409       .  A
C1526      C1531   1.477       .  S
C1527      C1528   1.396       .  A
C1527      F1532   1.357       .  S
C1528      C1529   1.398       .  A
C1528      H1533   1.083       .  S
C1529      C1530   1.408       .  A
C1530      F1534   1.358       .  S
C1531      C1536   1.390       .  A
C1531      C1540   1.406       .  A
C1536      C1537   1.383       .  A
C1536      F1541   1.359       .  S
C1537      C1538   1.423       .  A
C1537      H1542   1.079       .  S
C1538      C1539   1.414       .  A
C1539      C1540   1.410       .  A
C1539      F1543   1.355       .  S
C1540      H1544   1.082       .  S
C1545      C1546   1.404       .  A
C1545      C1550   1.400       .  A
C1545      H1555   1.083       .  S
C1546      C1547   1.407       .  A
C1546      C1551   1.485       .  S
C1547      C1548   1.402       .  A
C1547      F1552   1.357       .  S
C1548      C1549   1.404       .  A
C1548      H1553   1.083       .  S
C1549      C1550   1.406       .  A
C1550      F1554   1.358       .  S
C1551      C1556   1.391       .  A
C1551      C1560   1.403       .  A
C1556      C1557   1.389       .  A
C1556      F1561   1.358       .  S
C1557      C1558   1.429       .  A
C1557      H1562   1.079       .  S
C1558      C1559   1.419       .  A
C1559      C1560   1.409       .  A
C1559      F1563   1.353       .  S
C1560      H1564   1.079       .  S
C1565      C1566   1.403       .  A
C1565      C1570   1.409       .  A
C1565      H1575   1.080       .  S
C1566      C1567   1.391       .  A
C1566      C1571   1.479       .  S
C1567      C1568   1.390       .  A
C1567      F1572   1.358       .  S
C1568      C1569   1.426       .  A
C1568      H1573   1.081       .  S
C1569      C1570   1.420       .  A
C1570      F1574   1.348       .  S
C1571      C1576   1.405       .  A
C1571      C1580   1.403       .  A
C1576      C1577   1.404       .  A
C1576      F1581   1.357       .  S
C1577      C1578   1.406       .  A
C1577      H1582   1.082       .  S
C1578      C1579   1.404       .  A
C1579      C1580   1.398       .  A
C1579      F1583   1.357       .  S
C1580      H1584   1.083       .  S
C1585      C1586   1.404       .  A
C1585      C1590   1.396       .  A
C1585      H1595   1.084       .  S
C1586      C1587   1.408       .  A
C1586      C1591   1.482       .  S
C1587      C1588   1.402       .  A
C1587      F1592   1.357       .  S
C1588      C1589   1.403       .  A
C1588      H1593   1.083       .  S
C1589      C1590   1.405       .  A
C1590      F1594   1.357       .  S
C1591      C1596   1.396       .  A
C1591      C1600   1.405       .  A
C1596      C1597   1.387       .  A
C1596      F1601   1.359       .  S
C1597      C1598   1.422       .  A
C1597      H1602   1.077       .  S
C1598      C1599   1.421       .  A
C1599      C1600   1.407       .  A
C1599      F1603   1.357       .  S
C1600      H1604   1.083       .  S
C1605      C1606   1.408       .  A
C1605      C1610   1.401       .  A
C1605      H1615   1.082       .  S
C1606      C1607   1.410       .  A
C1606      C1611   1.493       .  S
C1607      C1608   1.399       .  A
C1607      F1612   1.357       .  S
C1608      C1609   1.402       .  A
C1608      H1613   1.084       .  S
C1609      C1610   1.404       .  A
C1610      F1614   1.357   1_455  S
C1611      C1616   1.403       .  A
C1611      C1620   1.409       .  A
C1616      C1617   1.394       .  A
C1616      F1621   1.357       .  S
C1617      C1618   1.420       .  A
C1617      H1622   1.082       .  S
C1618      C1619   1.414       .  A
C1619      C1620   1.406       .  A
C1619      F1623   1.357       .  S
C1620      H1624   1.083   1_455  S
C1625      C1626   1.400       .  A
C1625      C1630   1.393       .  A
C1625      H1635   1.082       .  S
C1626      C1627   1.413       .  A
C1626      C1631   1.489       .  S
C1627      C1628   1.405       .  A
C1627      F1632   1.357       .  S
C1628      C1629   1.405       .  A
C1628      H1633   1.083       .  S
C1629      C1630   1.420       .  A
C1630      F1634   1.358       .  S
C1631      C1636   1.410       .  A
C1631      C1640   1.407       .  A
C1636      C1637   1.400       .  A
C1636      F1641   1.357       .  S
C1637      C1638   1.404       .  A
C1637      H1642   1.083       .  S
C1638      C1639   1.403       .  A
C1639      C1640   1.400       .  A
C1639      F1643   1.357       .  S
C1640      H1644   1.083       .  S
C1645      C1646   1.405       .  A
C1645      C1650   1.402       .  A
C1645      H1655   1.083       .  S
C1646      C1647   1.407       .  A
C1646      C1651   1.487       .  S
C1647      C1648   1.402       .  A
C1647      F1652   1.357       .  S
C1648      C1649   1.404       .  A
C1648      H1653   1.083       .  S
C1649      C1650   1.406       .  A
C1650      F1654   1.357       .  S
C1651      C1656   1.397       .  A
C1651      C1660   1.406       .  A
C1656      C1657   1.395       .  A
C1656      F1661   1.358       .  S
C1657      C1658   1.424       .  A
C1657      H1662   1.076       .  S
C1658      C1659   1.420       .  A
C1659      C1660   1.409       .  A
C1659      F1663   1.357       .  S
C1660      H1664   1.082       .  S
C1665      C1666   1.404       .  A
C1665      C1670   1.401       .  A
C1665      H1675   1.083       .  S
C1666      C1667   1.407       .  A
C1666      C1671   1.485       .  S
C1667      C1668   1.401       .  A
C1667      F1672   1.357       .  S
C1668      C1669   1.403       .  A
C1668      H1673   1.083       .  S
C1669      C1670   1.406       .  A
C1670      F1674   1.357   1_455  S
C1671      C1676   1.396       .  A
C1671      C1680   1.405       .  A
C1676      C1677   1.395       .  A
C1676      F1681   1.358       .  S
C1677      C1678   1.425       .  A
C1677      H1682   1.079       .  S
C1678      C1679   1.416       .  A
C1679      C1680   1.405       .  A
C1679      F1683   1.356       .  S
C1680      H1684   1.081       .  S
C1685      C1686   1.393       .  A
C1685      C1690   1.391       .  A
C1685      H1695   1.084       .  S
C1686      C1687   1.410       .  A
C1686      C1691   1.500       .  S
C1687      C1688   1.415       .  A
C1687      F1692   1.356   1_565  S
C1688      C1689   1.419       .  A
C1688      H1693   1.082       .  S
C1689      C1690   1.432       .  A
C1690      F1694   1.350       .  S
C1691      C1696   1.412       .  A
C1691      C1700   1.408       .  A
C1696      C1697   1.409       .  A
C1696      F1701   1.356       .  S
C1697      C1698   1.407       .  A
C1697      H1702   1.083       .  S
C1698      C1699   1.403       .  A
C1699      C1700   1.398       .  A
C1699      F1703   1.358       .  S
C1700      H1704   1.083       .  S
C1705      C1706   1.400       .  A
C1705      C1710   1.399       .  A
C1705      H1715   1.079       .  S
C1706      C1707   1.394       .  A
C1706      C1711   1.480       .  S
C1707      C1708   1.395       .  A
C1707      F1712   1.358       .  S
C1708      C1709   1.425       .  A
C1708      H1713   1.067       .  S
C1709      C1710   1.419       .  A
C1710      F1714   1.357       .  S
C1711      C1716   1.408       .  A
C1711      C1720   1.401       .  A
C1716      C1717   1.401       .  A
C1716      F1721   1.357       .  S
C1717      C1718   1.402       .  A
C1717      H1722   1.083       .  S
C1718      C1719   1.408       .  A
C1719      C1720   1.398       .  A
C1719      F1723   1.357       .  S
C1720      H1724   1.084       .  S
C1725      C1726   1.407       .  A
C1725      C1730   1.396       .  A
C1725      H1735   1.083       .  S
C1726      C1727   1.410       .  A
C1726      C1731   1.488       .  S
C1727      C1728   1.400       .  A
C1727      F1732   1.357       .  S
C1728      C1729   1.402       .  A
C1728      H1733   1.084       .  S
C1729      C1730   1.403       .  A
C1730      F1734   1.358       .  S
C1731      C1736   1.396       .  A
C1731      C1740   1.405       .  A
C1736      C1737   1.388       .  A
C1736      F1741   1.359       .  S
C1737      C1738   1.425       .  A
C1737      H1742   1.073       .  S
C1738      C1739   1.424       .  A
C1739      C1740   1.406       .  A
C1739      F1743   1.354       .  S
C1740      H1744   1.083       .  S
C1745      C1746   1.410       .  A
C1745      C1750   1.406       .  A
C1745      H1755   1.081       .  S
C1746      C1747   1.409       .  A
C1746      C1751   1.501       .  S
C1747      C1748   1.397       .  A
C1747      F1752   1.358       .  S
C1748      C1749   1.411       .  A
C1748      H1753   1.083       .  S
C1749      C1750   1.414       .  A
C1750      F1754   1.357       .  S
C1751      C1756   1.411   1_565  A
C1751      C1760   1.413       .  A
C1756      C1757   1.402       .  A
C1756      F1761   1.356       .  S
C1757      C1758   1.407       .  A
C1757      H1762   1.083       .  S
C1758      C1759   1.400   1_545  A
C1759      C1760   1.400       .  A
C1759      F1763   1.357       .  S
C1760      H1764   1.082       .  S
C1765      C1766   1.413       .  A
C1765      C1770   1.402       .  A
C1765      H1775   1.083       .  S
C1766      C1767   1.409   1_556  A
C1766      C1771   1.499       .  S
C1767      C1768   1.400       .  A
C1767      F1772   1.355       .  S
C1768      C1769   1.406   1_554  A
C1768      H1773   1.084       .  S
C1769      C1770   1.403       .  A
C1770      F1774   1.357       .  S
C1771      C1776   1.412       .  A
C1771      C1780   1.410       .  A
C1776      C1777   1.395       .  A
C1776      F1781   1.355       .  S
C1777      C1778   1.405       .  A
C1777      H1782   1.083       .  S
C1778      C1779   1.415       .  A
C1779      C1780   1.405       .  A
C1779      F1783   1.357       .  S
C1780      H1784   1.081       .  S
C1785      C1786   1.408       .  A
C1785      C1790   1.403       .  A
C1785      H1795   1.082       .  S
C1786      C1787   1.408       .  A
C1786      C1791   1.486       .  S
C1787      C1788   1.394       .  A
C1787      F1792   1.358       .  S
C1788      C1789   1.401       .  A
C1788      H1793   1.083       .  S
C1789      C1790   1.404       .  A
C1790      F1794   1.357       .  S
C1791      C1796   1.406       .  A
C1791      C1800   1.395       .  A
C1796      C1797   1.403       .  A
C1796      F1801   1.357       .  S
C1797      C1798   1.419       .  A
C1797      H1802   1.082       .  S
C1798      C1799   1.428       .  A
C1799      C1800   1.388       .  A
C1799      F1803   1.353       .  S
C1800      H1804   1.083       .  S
C1805      C1806   1.404       .  A
C1805      C1810   1.396       .  A
C1805      H1815   1.082       .  S
C1806      C1807   1.411       .  A
C1806      C1811   1.509       .  S
C1807      C1808   1.403       .  A
C1807      F1812   1.355       .  S
C1808      C1809   1.420       .  A
C1808      H1813   1.083       .  S
C1809      C1810   1.423       .  A
C1810      F1814   1.347       .  S
C1811      C1816   1.419       .  A
C1811      C1820   1.409       .  A
C1816      C1817   1.400       .  A
C1816      F1821   1.357       .  S
C1817      C1818   1.398       .  A
C1817      H1822   1.083       .  S
C1818      C1819   1.404       .  A
C1819      C1820   1.397       .  A
C1819      F1823   1.358       .  S
C1820      H1824   1.074       .  S
C1825      C1826   1.407       .  A
C1825      C1830   1.412       .  A
C1825      H1835   1.081       .  S
C1826      C1827   1.395       .  A
C1826      C1831   1.486       .  S
C1827      C1828   1.387       .  A
C1827      F1832   1.358       .  S
C1828      C1829   1.421       .  A
C1828      H1833   1.080       .  S
C1829      C1830   1.417       .  A
C1830      F1834   1.355       .  S
C1831      C1836   1.407       .  A
C1831      C1840   1.405       .  A
C1836      C1837   1.405       .  A
C1836      F1841   1.357       .  S
C1837      C1838   1.407       .  A
C1837      H1842   1.083       .  S
C1838      C1839   1.403       .  A
C1839      C1840   1.395       .  A
C1839      F1843   1.358       .  S
C1840      H1844   1.083       .  S
C1845      C1846   1.397       .  A
C1845      C1850   1.394       .  A
C1845      H1855   1.083       .  S
C1846      C1847   1.408       .  A
C1846      C1851   1.484       .  S
C1847      C1848   1.402       .  A
C1847      F1852   1.356       .  S
C1848      C1849   1.409       .  A
C1848      H1853   1.083       .  S
C1849      C1850   1.425       .  A
C1850      F1854   1.357       .  S
C1851      C1856   1.407       .  A
C1851      C1860   1.406       .  A
C1856      C1857   1.399       .  A
C1856      F1861   1.357       .  S
C1857      C1858   1.403       .  A
C1857      H1862   1.083       .  S
C1858      C1859   1.404       .  A
C1859      C1860   1.399       .  A
C1859      F1863   1.357       .  S
C1860      H1864   1.083       .  S
C1865      C1866   1.417       .  A
C1865      C1870   1.401       .  A
C1865      H1875   1.082       .  S
C1866      C1867   1.413       .  A
C1866      C1871   1.516       .  S
C1867      C1868   1.409       .  A
C1867      F1872   1.356       .  S
C1868      C1869   1.410       .  A
C1868      H1873   1.084       .  S
C1869      C1870   1.400       .  A
C1870      F1874   1.357       .  S
C1871      C1876   1.420       .  A
C1871      C1880   1.397       .  A
C1876      C1877   1.419       .  A
C1876      F1881   1.352       .  S
C1877      C1878   1.416       .  A
C1877      H1882   1.075       .  S
C1878      C1879   1.428       .  A
C1879      C1880   1.388       .  A
C1879      F1883   1.355       .  S
C1880      H1884   1.082       .  S
C1885      C1886   1.401       .  A
C1885      C1890   1.400       .  A
C1885      H1895   1.083       .  S
C1886      C1887   1.397       .  A
C1886      C1891   1.484       .  S
C1887      C1888   1.397       .  A
C1887      F1892   1.358       .  S
C1888      C1889   1.425       .  A
C1888      H1893   1.068       .  S
C1889      C1890   1.419       .  A
C1890      F1894   1.357       .  S
C1891      C1896   1.408       .  A
C1891      C1900   1.403       .  A
C1896      C1897   1.401       .  A
C1896      F1901   1.357       .  S
C1897      C1898   1.402       .  A
C1897      H1902   1.083       .  S
C1898      C1899   1.408       .  A
C1899      C1900   1.400       .  A
C1899      F1903   1.358       .  S
C1900      H1904   1.084       .  S
C1905      C1906   1.405       .  A
C1905      C1910   1.411       .  A
C1905      H1915   1.082       .  S
C1906      C1907   1.397       .  A
C1906      C1911   1.493       .  S
C1907      C1908   1.392       .  A
C1907      F1912   1.358       .  S
C1908      C1909   1.424       .  A
C1908      H1913   1.081       .  S
C1909      C1910   1.419       .  A
C1910      F1914   1.347       .  S
C1911      C1916   1.409       .  A
C1911      C1920   1.406       .  A
C1916      C1917   1.407       .  A
C1916      F1921   1.357       .  S
C1917      C1918   1.406       .  A
C1917      H1922   1.084       .  S
C1918      C1919   1.404       .  A
C1919      C1920   1.399       .  A
C1919      F1923   1.357       .  S
C1920      H1924   1.084       .  S
C1925      C1926   1.411       .  A
C1925      C1930   1.403       .  A
C1925      H1935   1.079       .  S
C1926      C1927   1.411       .  A
C1926      C1931   1.506       .  S
C1927      C1928   1.397       .  A
C1927      F1932   1.357       .  S
C1928      C1929   1.411       .  A
C1928      H1933   1.083       .  S
C1929      C1930   1.415       .  A
C1930      F1934   1.358       .  S
C1931      C1936   1.413       .  A
C1931      C1940   1.416       .  A
C1936      C1937   1.397       .  A
C1936      F1941   1.354       .  S
C1937      C1938   1.402       .  A
C1937      H1942   1.084       .  S
C1938      C1939   1.400       .  A
C1939      C1940   1.401       .  A
C1939      F1943   1.357       .  S
C1940      H1944   1.082       .  S
C1945      C1946   1.412       .  A
C1945      C1950   1.397       .  A
C1945      H1955   1.083       .  S
C1946      C1947   1.406       .  A
C1946      C1951   1.494       .  S
C1947      C1948   1.398       .  A
C1947      F1952   1.353       .  S
C1948      C1949   1.408       .  A
C1948      H1953   1.083       .  S
C1949      C1950   1.401       .  A
C1950      F1954   1.357       .  S
C1951      C1956   1.401       .  A
C1951      C1960   1.405       .  A
C1956      C1957   1.384       .  A
C1956      F1961   1.359       .  S
C1957      C1958   1.420       .  A
C1957      H1962   1.071       .  S
C1958      C1959   1.424       .  A
C1959      C1960   1.408       .  A
C1959      F1963   1.354       .  S
C1960      H1964   1.082       .  S
C1965      C1966   1.408       .  A
C1965      C1970   1.407       .  A
C1965      H1975   1.083       .  S
C1966      C1967   1.400       .  A
C1966      C1971   1.485       .  S
C1967      C1968   1.394       .  A
C1967      F1972   1.358       .  S
C1968      C1969   1.418       .  A
C1968      H1973   1.081       .  S
C1969      C1970   1.412       .  A
C1970      F1974   1.357       .  S
C1971      C1976   1.406       .  A
C1971      C1980   1.406       .  A
C1976      C1977   1.400       .  A
C1976      F1981   1.357       .  S
C1977      C1978   1.404       .  A
C1977      H1982   1.083       .  S
C1978      C1979   1.404       .  A
C1979      C1980   1.401       .  A
C1979      F1983   1.357       .  S
C1980      H1984   1.083       .  S
C1985      C1986   1.386       .  A
C1985      C1990   1.385       .  A
C1985      H1995   1.084       .  S
C1986      C1987   1.407       .  A
C1986      C1991   1.476       .  S
C1987      C1988   1.409       .  A
C1987      F1992   1.352       .  S
C1988      C1989   1.413       .  A
C1988      H1993   1.080       .  S
C1989      C1990   1.427       .  A
C1990      F1994   1.353       .  S
C1991      C1996   1.403       .  A
C1991      C2000   1.404       .  A
C1996      C1997   1.402       .  A
C1996      F2001   1.357       .  S
C1997      C1998   1.405       .  A
C1997      H2002   1.083       .  S
C1998      C1999   1.406       .  A
C1999      C2000   1.400       .  A
C1999      F2003   1.357       .  S
C2000      H2004   1.083       .  S
C2005      C2006   1.405       .  A
C2005      C2010   1.397       .  A
C2005      H2015   1.083       .  S
C2006      C2007   1.407       .  A
C2006      C2011   1.479       .  S
C2007      C2008   1.396       .  A
C2007      F2012   1.358       .  S
C2008      C2009   1.402       .  A
C2008      H2013   1.083       .  S
C2009      C2010   1.402       .  A
C2010      F2014   1.357       .  S
C2011      C2016   1.401       .  A
C2011      C2020   1.389       .  A
C2016      C2017   1.399       .  A
C2016      F2021   1.357       .  S
C2017      C2018   1.419       .  A
C2017      H2022   1.079       .  S
C2018      C2019   1.435       .  A
C2019      C2020   1.390       .  A
C2019      F2023   1.348       .  S
C2020      H2024   1.084       .  S
C2025      C2026   1.410       .  A
C2025      C2030   1.412       .  A
C2025      H2035   1.081       .  S
C2026      C2027   1.398       .  A
C2026      C2031   1.494       .  S
C2027      C2028   1.387       .  A
C2027      F2032   1.358       .  S
C2028      C2029   1.423       .  A
C2028      H2033   1.076       .  S
C2029      C2030   1.416       .  A
C2030      F2034   1.358       .  S
C2031      C2036   1.409       .  A
C2031      C2040   1.408       .  A
C2036      C2037   1.406       .  A
C2036      F2041   1.357       .  S
C2037      C2038   1.406       .  A
C2037      H2042   1.083       .  S
C2038      C2039   1.403       .  A
C2039      C2040   1.396       .  A
C2039      F2043   1.358       .  S
C2040      H2044   1.083       .  S
C2045      C2046   1.408       .  A
C2045      C2050   1.411       .  A
C2045      H2055   1.082       .  S
C2046      C2047   1.393       .  A
C2046      C2051   1.486       .  S
C2047      C2048   1.388       .  A
C2047      F2052   1.358       .  S
C2048      C2049   1.427       .  A
C2048      H2053   1.080       .  S
C2049      C2050   1.418       .  A
C2050      F2054   1.356       .  S
C2051      C2056   1.410       .  A
C2051      C2060   1.401       .  A
C2056      C2057   1.403       .  A
C2056      F2061   1.357       .  S
C2057      C2058   1.402       .  A
C2057      H2062   1.084       .  S
C2058      C2059   1.408       .  A
C2059      C2060   1.400       .  A
C2059      F2063   1.357       .  S
C2060      H2064   1.084       .  S
C2065      C2066   1.407       .  A
C2065      C2070   1.405       .  A
C2065      H2075   1.079       .  S
C2066      C2067   1.410       .  A
C2066      C2071   1.513       .  S
C2067      C2068   1.401       .  A
C2067      F2072   1.358       .  S
C2068      C2069   1.418       .  A
C2068      H2073   1.072       .  S
C2069      C2070   1.426       .  A
C2070      F2074   1.357       .  S
C2071      C2076   1.415       .  A
C2071      C2080   1.415       .  A
C2076      C2077   1.403       .  A
C2076      F2081   1.355       .  S
C2077      C2078   1.407       .  A
C2077      H2082   1.083       .  S
C2078      C2079   1.403       .  A
C2079      C2080   1.404       .  A
C2079      F2083   1.357       .  S
C2080      H2084   1.081       .  S
C2085      C2086   1.401       .  A
C2085      C2090   1.396       .  A
C2085      H2095   1.083       .  S
C2086      C2087   1.406       .  A
C2086      C2091   1.474       .  S
C2087      C2088   1.400       .  A
C2087      F2092   1.357       .  S
C2088      C2089   1.402       .  A
C2088      H2093   1.082       .  S
C2089      C2090   1.406       .  A
C2090      F2094   1.358       .  S
C2091      C2096   1.391       .  A
C2091      C2100   1.402       .  A
C2096      C2097   1.387       .  A
C2096      F2101   1.359       .  S
C2097      C2098   1.425       .  A
C2097      H2102   1.072       .  S
C2098      C2099   1.420       .  A
C2099      C2100   1.404       .  A
C2099      F2103   1.357       .  S
C2100      H2104   1.082       .  S
C2105      C2106   1.404       .  A
C2105      C2110   1.405       .  A
C2105      H2115   1.072       .  S
C2106      C2107   1.395       .  A
C2106      C2111   1.489       .  S
C2107      C2108   1.391       .  A
C2107      F2112   1.358       .  S
C2108      C2109   1.428       .  A
C2108      H2113   1.076       .  S
C2109      C2110   1.418       .  A
C2110      F2114   1.357       .  S
C2111      C2116   1.408       .  A
C2111      C2120   1.407       .  A
C2116      C2117   1.398       .  A
C2116      F2121   1.358       .  S
C2117      C2118   1.403       .  A
C2117      H2122   1.083       .  S
C2118      C2119   1.404       .  A
C2119      C2120   1.402       .  A
C2119      F2123   1.357       .  S
C2120      H2124   1.083       .  S
C2125      C2126   1.404       .  A
C2125      C2130   1.400       .  A
C2125      H2135   1.083       .  S
C2126      C2127   1.407       .  A
C2126      C2131   1.482       .  S
C2127      C2128   1.399       .  A
C2127      F2132   1.358       .  S
C2128      C2129   1.403       .  A
C2128      H2133   1.084       .  S
C2129      C2130   1.406       .  A
C2130      F2134   1.357       .  S
C2131      C2136   1.394       .  A
C2131      C2140   1.401       .  A
C2136      C2137   1.393       .  A
C2136      F2141   1.358       .  S
C2137      C2138   1.425       .  A
C2137      H2142   1.072       .  S
C2138      C2139   1.423       .  A
C2139      C2140   1.404       .  A
C2139      F2143   1.355       .  S
C2140      H2144   1.082       .  S
C2145      C2146   1.408       .  A
C2145      C2150   1.403       .  A
C2145      H2155   1.080       .  S
C2146      C2147   1.409       .  A
C2146      C2151   1.507       .  S
C2147      C2148   1.393       .  A
C2147      F2152   1.358       .  S
C2148      C2149   1.417       .  A
C2148      H2153   1.077       .  S
C2149      C2150   1.417       .  A
C2150      F2154   1.356       .  S
C2151      C2156   1.414       .  A
C2151      C2160   1.414       .  A
C2156      C2157   1.399       .  A
C2156      F2161   1.355       .  S
C2157      C2158   1.405       .  A
C2157      H2162   1.083       .  S
C2158      C2159   1.402       .  A
C2159      C2160   1.399       .  A
C2159      F2163   1.357       .  S
C2160      H2164   1.081       .  S
C2165      C2166   1.402       .  A
C2165      C2170   1.393       .  A
C2165      H2175   1.079       .  S
C2166      C2167   1.407       .  A
C2166      C2171   1.487       .  S
C2167      C2168   1.407       .  A
C2167      F2172   1.357       .  S
C2168      C2169   1.414       .  A
C2168      H2173   1.082       .  S
C2169      C2170   1.413       .  A
C2170      F2174   1.358       .  S
C2171      C2176   1.411       .  A
C2171      C2180   1.401       .  A
C2176      C2177   1.401       .  A
C2176      F2181   1.358       .  S
C2177      C2178   1.401       .  A
C2177      H2182   1.083       .  S
C2178      C2179   1.412       .  A
C2179      C2180   1.402       .  A
C2179      F2183   1.358       .  S
C2180      H2184   1.082       .  S
C2185      C2186   1.404       .  A
C2185      C2190   1.409       .  A
C2185      H2195   1.081       .  S
C2186      C2187   1.395       .  A
C2186      C2191   1.486       .  S
C2187      C2188   1.395       .  A
C2187      F2192   1.358       .  S
C2188      C2189   1.424       .  A
C2188      H2193   1.081       .  S
C2189      C2190   1.418       .  A
C2190      F2194   1.355       .  S
C2191      C2196   1.406       .  A
C2191      C2200   1.404       .  A
C2196      C2197   1.404       .  A
C2196      F2201   1.357       .  S
C2197      C2198   1.405       .  A
C2197      H2202   1.083       .  S
C2198      C2199   1.407       .  A
C2199      C2200   1.402       .  A
C2199      F2203   1.357       .  S
C2200      H2204   1.083       .  S
C2205      C2206   1.408       .  A
C2205      C2210   1.403       .  A
C2205      H2215   1.079       .  S
C2206      C2207   1.408       .  A
C2206      C2211   1.503       .  S
C2207      C2208   1.393       .  A
C2207      F2212   1.358       .  S
C2208      C2209   1.414       .  A
C2208      H2213   1.069       .  S
C2209      C2210   1.421       .  A
C2210      F2214   1.358       .  S
C2211      C2216   1.413       .  A
C2211      C2220   1.413       .  A
C2216      C2217   1.400       .  A
C2216      F2221   1.356       .  S
C2217      C2218   1.406       .  A
C2217      H2222   1.083       .  S
C2218      C2219   1.399       .  A
C2219      C2220   1.396       .  A
C2219      F2223   1.357       .  S
C2220      H2224   1.082       .  S
C2225      C2226   1.412       .  A
C2225      C2230   1.416       .  A
C2225      H2235   1.081       .  S
C2226      C2227   1.397       .  A
C2226      C2231   1.491       .  S
C2227      C2228   1.383       .  A
C2227      F2232   1.359       .  S
C2228      C2229   1.419       .  A
C2228      H2233   1.082       .  S
C2229      C2230   1.413       .  A
C2230      F2234   1.353       .  S
C2231      C2236   1.408       .  A
C2231      C2240   1.408       .  A
C2236      C2237   1.407       .  A
C2236      F2241   1.357       .  S
C2237      C2238   1.408       .  A
C2237      H2242   1.083       .  S
C2238      C2239   1.400       .  A
C2239      C2240   1.393       .  A
C2239      F2243   1.358       .  S
C2240      H2244   1.083       .  S
C2245      C2246   1.398       .  A
C2245      C2250   1.395       .  A
C2245      H2255   1.083       .  S
C2246      C2247   1.411       .  A
C2246      C2251   1.491       .  S
C2247      C2248   1.407       .  A
C2247      F2252   1.357       .  S
C2248      C2249   1.410       .  A
C2248      H2253   1.083       .  S
C2249      C2250   1.425       .  A
C2250      F2254   1.358       .  S
C2251      C2256   1.408       .  A
C2251      C2260   1.408       .  A
C2256      C2257   1.400       .  A
C2256      F2261   1.357       .  S
C2257      C2258   1.402       .  A
C2257      H2262   1.084       .  S
C2258      C2259   1.405       .  A
C2259      C2260   1.401       .  A
C2259      F2263   1.357       .  S
C2260      H2264   1.083       .  S
C2265      C2266   1.409       .  A
C2265      C2270   1.407       .  A
C2265      H2275   1.083       .  S
C2266      C2267   1.403       .  A
C2266      C2271   1.489       .  S
C2267      C2268   1.395       .  A
C2267      F2272   1.358       .  S
C2268      C2269   1.417       .  A
C2268      H2273   1.081       .  S
C2269      C2270   1.413       .  A
C2270      F2274   1.357       .  S
C2271      C2276   1.411       .  A
C2271      C2280   1.405       .  A
C2276      C2277   1.402       .  A
C2276      F2281   1.357       .  S
C2277      C2278   1.402       .  A
C2277      H2282   1.083       .  S
C2278      C2279   1.404       .  A
C2279      C2280   1.397       .  A
C2279      F2283   1.357       .  S
C2280      H2284   1.083       .  S
C2285      C2286   1.409       .  A
C2285      C2290   1.404       .  A
C2285      H2295   1.084       .  S
C2286      C2287   1.404       .  A
C2286      C2291   1.490       .  S
C2287      C2288   1.402       .  A
C2287      F2292   1.357       .  S
C2288      C2289   1.408       .  A
C2288      H2293   1.084       .  S
C2289      C2290   1.404       .  A
C2290      F2294   1.357       .  S
C2291      C2296   1.409       .  A
C2291      C2300   1.390       .  A
C2296      C2297   1.415       .  A
C2296      F2301   1.354       .  S
C2297      C2298   1.413       .  A
C2297      H2302   1.081       .  S
C2298      C2299   1.430       .  A
C2299      C2300   1.391       .  A
C2299      F2303   1.356       .  S
C2300      H2304   1.084       .  S
C2305      C2306   1.392       .  A
C2305      C2310   1.395       .  A
C2305      H2315   1.084       .  S
C2306      C2307   1.400       .  A
C2306      C2311   1.482       .  S
C2307      C2308   1.398       .  A
C2307      F2312   1.354       .  S
C2308      C2309   1.419       .  A
C2308      H2313   1.080       .  S
C2309      C2310   1.433       .  A
C2310      F2314   1.347       .  S
C2311      C2316   1.404       .  A
C2311      C2320   1.407       .  A
C2316      C2317   1.396       .  A
C2316      F2321   1.357       .  S
C2317      C2318   1.405       .  A
C2317      H2322   1.084       .  S
C2318      C2319   1.403       .  A
C2319      C2320   1.401       .  A
C2319      F2323   1.357       .  S
C2320      H2324   1.083       .  S
