geometry optimzed in LAMMPS
_audit_creation_date              2020-12-01 
_audit_creation_method            'lammps2cif' 
_symmetry_space_group_name_H-M    'P1' 
_symmetry_Int_Tables_number       1 
_symmetry_cell_setting            triclinic 
loop_ 
_symmetry_equiv_pos_as_xyz 
  x,y,z 
_cell_length_a                    25.29487275 
_cell_length_b                    25.179173628928996 
_cell_length_c                    25.24137470160488 
_cell_angle_alpha                 91.58744598405845 
_cell_angle_beta                  89.20041013552647 
_cell_angle_gamma                 90.03084605336038 
loop_ 
_atom_site_label 
_atom_site_type_symbol 
_atom_site_fract_x 
_atom_site_fract_y 
_atom_site_fract_z 
_atom_site_charge 
O1          O  0.61039901  0.71170965  0.66546156    -0.82200
C2          C  0.79526881  0.66277537  0.78481807     0.97200
O3          O  0.74809314  0.65025781  0.79462847    -0.71300
O4          O  0.68467442  0.73189263  0.79789957    -0.74900
Al5        Al  0.68303479  0.66601541  0.76064999     1.49000
C6          C  0.66706624  0.77587754  0.78343278     0.92400
O7          O  0.73878797  0.79179074  0.67236236    -0.81100
O8          O  0.74457301  0.65541030  0.60464323    -0.74600
Al9        Al  0.67746947  0.74748980  0.67053217     1.90100
O10         O  0.80155403  0.73417209  0.65601469    -0.73700
O11         O  0.75486064  0.59621790  0.68697157    -0.73600
O12         O  0.80832718  0.67636181  0.73891961    -0.79200
O13         O  0.67862241  0.59679574  0.72976230    -0.77400
O14         O  0.71053648  0.69358158  0.70137212    -1.13600
O15         O  0.61105345  0.67550944  0.74302757    -0.72800
C16         C  0.58592641  0.69061465  0.70346718     0.98000
C17         C  0.78687951  0.78158126  0.66324661     0.94400
Al18       Al  0.77158422  0.66775910  0.67412099     1.55600
O19         O  0.65641847  0.78303224  0.73541907    -0.77400
C20         C  0.71484229  0.57218524  0.70449924     0.98500
C21         C  0.71587084  0.68467593  0.57727231     0.93400
O22         O  0.69156997  0.72349539  0.59896370    -0.82700
O23         O  0.74189266  0.24078835  0.70075078    -0.82200
C24         C  0.66617081  0.05414448  0.78296384     0.97200
O25         O  0.68623727  0.09724849  0.79882592    -0.71300
O26         O  0.74339238  0.18380826  0.80022593    -0.74900
Al27       Al  0.67771592  0.16294014  0.76718418     1.49000
C28         C  0.79102610  0.17409079  0.78766943     0.92400
O29         O  0.79470781  0.10609524  0.65114022    -0.81100
O30         O  0.69278497  0.10696959  0.60084969    -0.74600
Al31       Al  0.76244342  0.17052690  0.67884637     1.90100
O32         O  0.73949497  0.04405008  0.67535336    -0.73700
O33         O  0.60987284  0.11799137  0.66598668    -0.73600
O34         O  0.65353811  0.04740812  0.73487796    -0.79200
O35         O  0.60621215  0.14816462  0.74848731    -0.77400
O36         O  0.70541661  0.13931713  0.70574410    -1.13600
O37         O  0.66583478  0.23090474  0.74214549    -0.72800
C38         C  0.69935546  0.25994799  0.72000160     0.98000
C39         C  0.78511115  0.05792440  0.66058609     0.94400
Al40       Al  0.67642701  0.08370639  0.67184289     1.55600
O41         O  0.80255478  0.16069956  0.74063350    -0.77400
C42         C  0.58389908  0.13750235  0.70494314     0.98500
C43         C  0.70917339  0.15060332  0.58288602     0.93400
O44         O  0.73001028  0.18456840  0.61357720    -0.82700
O45         O  0.19371134  0.23201894  0.72318764    -0.82200
C46         C  0.06283341  0.05673196  0.66480756     0.97200
O47         O  0.05712600  0.10444531  0.65165738    -0.71300
O48         O  0.05302515  0.16959553  0.73624685    -0.74900
Al49       Al  0.09398834  0.16877699  0.67225308     1.49000
C50         C  0.06731568  0.18709613  0.78122578     0.92400
O51         O  0.17336646  0.10680247  0.79982306    -0.81100
O52         O  0.24126169  0.09815651  0.66329407    -0.74600
Al53       Al  0.18089253  0.16712033  0.75732001     1.90100
O54         O  0.18931107  0.04403884  0.74101862    -0.73700
O55         O  0.15925072  0.08974491  0.60358460    -0.73600
O56         O  0.10555658  0.04169523  0.68422770    -0.79200
O57         O  0.12908217  0.17155604  0.60550496    -0.77400
O58         O  0.14909195  0.13671107  0.70178426    -1.13600
O59         O  0.11712595  0.24067404  0.68574652    -0.72800
C60         C  0.15973492  0.26088612  0.70226271     0.98000
C61         C  0.18286271  0.05869431  0.78866445     0.94400
Al62       Al  0.17182853  0.07402798  0.67535939     1.55600
O63         O  0.11614572  0.19293160  0.79014990    -0.77400
C64         C  0.14895507  0.13216772  0.58039790     0.98500
C65         C  0.27060241  0.12372384  0.69467564     0.93400
O66         O  0.25134336  0.14732833  0.73541987    -0.82700
O67         O  0.15539570  0.73891181  0.60334889    -0.82200
C68         C  0.06590327  0.66135026  0.78799875     0.97200
O69         O  0.05048059  0.68231977  0.74619375    -0.71300
O70         O  0.05072291  0.73830157  0.66058852    -0.74900
Al71       Al  0.08450920  0.67430720  0.67951536     1.49000
C72         C  0.06095117  0.78632949  0.67018596     0.92400
O73         O  0.18994415  0.79472081  0.74062121    -0.81100
O74         O  0.24840203  0.68759394  0.73419290    -0.74600
Al75       Al  0.17077297  0.76136410  0.67489160     1.90100
O76         O  0.17437531  0.73529162  0.80065829    -0.73700
O77         O  0.18393789  0.60380958  0.71937078    -0.73600
O78         O  0.11388841  0.64852041  0.79231777    -0.79200
O79         O  0.10233836  0.60276642  0.69173588    -0.77400
O80         O  0.14479082  0.70250290  0.70351145    -1.13600
O81         O  0.11226991  0.66353251  0.61098995    -0.72800
C82         C  0.13586013  0.69687607  0.58287651     0.98000
C83         C  0.18384145  0.78298158  0.78861019     0.94400
Al84       Al  0.17757597  0.67164650  0.75693020     1.55600
O85         O  0.10673148  0.79991214  0.68356697    -0.77400
C86         C  0.14453119  0.57846352  0.70114801     0.98500
C87         C  0.26883783  0.70941567  0.69442048     0.93400
O88         O  0.23988489  0.73325558  0.66256589    -0.82700
O89         O  0.23079260  0.74658830  0.18788532    -0.82200
C90         C  0.05962441  0.66293115  0.07004342     0.97200
O91         O  0.10796881  0.65260310  0.06279716    -0.71300
O92         O  0.16221368  0.74220381  0.05072679    -0.74900
Al93       Al  0.17110956  0.68126508  0.09346750     1.49000
C94         C  0.17432138  0.78968811  0.06288759     0.92400
O95         O  0.09640943  0.80720738  0.16777817    -0.81100
O96         O  0.11624735  0.67623768  0.24582905    -0.74600
Al97       Al  0.16211348  0.77324482  0.17626055     1.90100
O98         O  0.04607963  0.74478284  0.19979131    -0.73700
O99         O  0.10601677  0.60814255  0.16483086    -0.73600
O100        O  0.04404446  0.68136349  0.11461092    -0.79200
O101        O  0.18441979  0.61727906  0.12852627    -0.77400
O102        O  0.13879765  0.71152630  0.14958564    -1.13600
O103        O  0.24087761  0.70227524  0.11258774    -0.72800
C104        C  0.26005361  0.72240850  0.15445514     0.98000
C105        C  0.05246930  0.79229336  0.18604496     0.94400
Al106      Al  0.08276703  0.68016773  0.17897035     1.55600
O107        O  0.18197811  0.80264104  0.11062433    -0.77400
C108        C  0.14952986  0.58824279  0.14895031     0.98500
C109        C  0.13721636  0.71492221  0.27064134     0.93400
O110        O  0.14741111  0.75765312  0.24775079    -0.82700
O111        O  0.67514641  0.74178002  0.23972763    -0.76600
C112        C  0.78462929  0.66740701  0.05989534     0.97200
O113        O  0.79381913  0.68020494  0.10739409    -0.71300
O114        O  0.78196613  0.73858447  0.19361084    -0.74900
Al115      Al  0.75018193  0.67367615  0.16867208     1.49000
C116        C  0.77353940  0.78635833  0.18250289     0.92400
O117        O  0.64673089  0.79504612  0.10260133    -0.81100
O118        O  0.59816677  0.69106274  0.09267673    -0.74600
Al119      Al  0.66461695  0.76138330  0.16766137     1.90100
O120        O  0.67903560  0.74103171  0.04131944    -0.73700
O121        O  0.65847499  0.60958913  0.10369223    -0.73600
O122        O  0.73792495  0.65688177  0.04614397    -0.79200
O123        O  0.73061983  0.60233654  0.14988930    -0.77400
O124        O  0.69490369  0.70375705  0.13786394    -1.13600
O125        O  0.71411713  0.66420413  0.23498191    -0.72800
C126        C  0.69078896  0.70035734  0.26195503     0.98000
C127        C  0.66040490  0.78555641  0.05496501     0.94400
Al128      Al  0.67050987  0.67698454  0.07650992     1.55600
O129        O  0.72899761  0.80018872  0.16556602    -0.77400
C130        C  0.69060247  0.58163998  0.12812065     0.98500
C131        C  0.57320596  0.70575121  0.13418208     0.93400
O132        O  0.59696613  0.72842398  0.17226936    -0.82700
O133        O  0.23744118  0.18210624  0.12861819    -0.82200
C134        C  0.04911122  0.06584989  0.18058194     0.97200
O135        O  0.09633260  0.05590659  0.19157718    -0.71300
O136        O  0.16010057  0.05019507  0.11031647    -0.74900
Al137      Al  0.16260702  0.08834336  0.17537720     1.49000
C138        C  0.17751870  0.06382405  0.06574658     0.92400
O139        O  0.11040514  0.17902923  0.04990523    -0.81100
O140        O  0.10579109  0.24383682  0.18626699    -0.74600
Al141      Al  0.17104968  0.17808205  0.09341080     1.90100
O142        O  0.04872147  0.19525110  0.10876744    -0.73700
O143        O  0.09226653  0.16284039  0.24586143    -0.73600
O144        O  0.03743395  0.11177901  0.16626054    -0.79200
O145        O  0.16786327  0.12008905  0.24380106    -0.77400
O146        O  0.13684572  0.14770192  0.14763631    -1.13600
O147        O  0.23531163  0.10494032  0.16590446    -0.72800
C148        C  0.26068843  0.14521635  0.15172226     0.98000
C149        C  0.06350510  0.19239625  0.06109480     0.94400
Al150      Al  0.07665970  0.17576639  0.17432305     1.55600
O151        O  0.18934046  0.11182830  0.05746667    -0.77400
C152        C  0.13250674  0.14595232  0.26893566     0.98500
C153        C  0.13409519  0.27159658  0.15642412     0.93400
O154        O  0.15897228  0.25030109  0.11760125    -0.82700
O155        O  0.72320381  0.17867447  0.24216628    -0.82200
C156        C  0.66042310  0.06268998  0.05389895     0.97200
O157        O  0.64837507  0.05382254  0.10126838    -0.71300
O158        O  0.72849978  0.04583874  0.16471135    -0.74900
Al159      Al  0.66585359  0.08752423  0.16693603     1.49000
C160        C  0.77459711  0.05793136  0.17914147     0.92400
O161        O  0.79988178  0.16684702  0.10986817    -0.81100
O162        O  0.67165694  0.24338917  0.11075337    -0.74600
Al163      Al  0.75689368  0.17090248  0.17300304     1.90100
O164        O  0.74289024  0.18597853  0.04935859    -0.73700
O165        O  0.60286018  0.16622783  0.09855779    -0.73600
O166        O  0.67677263  0.10784878  0.04135302    -0.79200
O167        O  0.59842011  0.12216703  0.17212045    -0.77400
O168        O  0.69925672  0.14419684  0.14042982    -1.13600
O169        O  0.67568467  0.10639556  0.23880494    -0.72800
C170        C  0.69585437  0.14399410  0.26532842     0.98000
C171        C  0.78976740  0.17704255  0.06238829     0.94400
Al172      Al  0.67554783  0.17318658  0.08076775     1.55600
O173        O  0.78657036  0.10526718  0.19013438    -0.77400
C174        C  0.57631168  0.14899016  0.13706743     0.98500
C175        C  0.70508030  0.26711810  0.13947803     0.93400
O176        O  0.74042643  0.24179272  0.16225133    -0.82700
N177        N  0.99273813  0.92703603  0.18796470    -0.37000
N178        N  0.91215118  0.00725723  0.18961809    -0.57500
N179        N  0.83158711  0.92199283  0.18717400    -0.37000
N180        N  0.91203360  0.84247919  0.19482540    -0.57500
C181        C  0.02033607  0.97145117  0.20167167     0.26600
C182        C  0.02029994  0.88473994  0.20434396     0.26600
C183        C  0.80259030  0.96566774  0.19913597     0.26600
C184        C  0.80260072  0.87961078  0.20147397     0.26600
C185        C  0.95451489  0.03397287  0.17036940     0.35200
C186        C  0.86889929  0.03024890  0.16939633     0.35200
C187        C  0.95592592  0.81440761  0.18094228     0.35200
C188        C  0.87015807  0.81196837  0.18042120     0.35200
C189        C  0.06523322  0.95679278  0.22889818    -0.22300
C190        C  0.06538053  0.90213693  0.23003926    -0.22300
C191        C  0.75510225  0.95117426  0.22279014    -0.22300
C192        C  0.75505798  0.89658124  0.22413793    -0.22300
C193        C  0.93790657  0.07331514  0.13701481    -0.23300
C194        C  0.88383036  0.07063849  0.13639163    -0.23300
C195        C  0.94184422  0.76620704  0.15764088    -0.23300
C196        C  0.88782811  0.76466484  0.15737929    -0.23300
C197        C  0.00733837  0.02325353  0.18468959    -0.18700
C198        C  0.00823397  0.83117830  0.19125798    -0.18700
C199        C  0.81651065  0.82653113  0.18909575    -0.18700
C200        C  0.81619297  0.01688437  0.18294147    -0.18700
H201        H  0.09506926  0.98198734  0.24665513     0.14200
H202        H  0.09546263  0.87794045  0.24760571     0.14200
H203        H  0.72328685  0.97695390  0.23659924     0.14200
H204        H  0.72331236  0.87226599  0.23935134     0.14200
H205        H  0.96156612  0.09950631  0.11313634     0.12500
H206        H  0.85865068  0.09367908  0.11198569     0.12500
H207        H  0.96731723  0.73558962  0.14125519     0.12500
H208        H  0.86497209  0.73266439  0.14070749     0.12500
H209        H  0.96065792  0.92503960  0.16253591     0.25800
H210        H  0.86579082  0.92101436  0.16370213     0.25800
N211        N  0.00368651  0.92217219  0.66023621    -0.37000
N212        N  0.92400347  0.00364015  0.65138316    -0.57500
N213        N  0.84227025  0.92123338  0.65952944    -0.37000
N214        N  0.92326143  0.83947958  0.65857101    -0.57500
C215        C  0.03264061  0.96423021  0.64499737     0.26600
C216        C  0.03242725  0.87816641  0.64849713     0.26600
C217        C  0.81421127  0.96370705  0.64430782     0.26600
C218        C  0.81353154  0.87711628  0.64776201     0.26600
C219        C  0.96652941  0.03308308  0.66598025     0.35200
C220        C  0.88096045  0.03287386  0.66537174     0.35200
C221        C  0.96579325  0.81386281  0.67749012     0.35200
C222        C  0.88012904  0.81328009  0.67642348     0.35200
C223        C  0.07983547  0.94681429  0.62196417    -0.22300
C224        C  0.07963279  0.89226112  0.62398651    -0.22300
C225        C  0.76731134  0.94634103  0.62174634    -0.22300
C226        C  0.76689826  0.89171475  0.62388645    -0.22300
C227        C  0.95062168  0.08073104  0.68926161    -0.23300
C228        C  0.89676710  0.08055923  0.68883615    -0.23300
C229        C  0.94968293  0.77198391  0.70813626    -0.23300
C230        C  0.89551707  0.77191397  0.70771832    -0.23300
C231        C  0.01946156  0.01750874  0.65738055    -0.18700
C232        C  0.01878163  0.82692938  0.66510070    -0.18700
C233        C  0.82749609  0.82503093  0.66213614    -0.18700
C234        C  0.82800479  0.01740047  0.65550517    -0.18700
H235        H  0.11148411  0.97089217  0.60617524     0.14200
H236        H  0.11111794  0.86623769  0.60986278     0.14200
H237        H  0.73636226  0.97039276  0.60552159     0.14200
H238        H  0.73563447  0.86606204  0.60948140     0.14200
H239        H  0.97475225  0.11191852  0.70631976     0.12500
H240        H  0.87293347  0.11184545  0.70556865     0.12500
H241        H  0.97407712  0.74532379  0.72993936     0.12500
H242        H  0.87059850  0.74582519  0.72985617     0.12500
H243        H  0.96982422  0.92386434  0.68423012     0.25800
H244        H  0.87604367  0.92284432  0.68265035     0.25800
N245        N  0.18598509  0.92274656  0.84582989    -0.37000
N246        N  0.18884759  0.00743473  0.92690362    -0.57500
N247        N  0.18338950  0.92649394  0.00693388    -0.37000
N248        N  0.19042510  0.84075788  0.92631073    -0.57500
C249        C  0.20252482  0.96569668  0.81909669     0.26600
C250        C  0.20307783  0.87863409  0.81871289     0.26600
C251        C  0.19764750  0.97035808  0.03531246     0.26600
C252        C  0.19676833  0.88356586  0.03494345     0.26600
C253        C  0.17148043  0.03334235  0.88430127     0.35200
C254        C  0.17167641  0.03561481  0.97010370     0.35200
C255        C  0.16989692  0.81622918  0.88297351     0.35200
C256        C  0.16649933  0.81871890  0.96854894     0.35200
C257        C  0.23246666  0.94860014  0.77530962    -0.22300
C258        C  0.23270264  0.89376002  0.77502608    -0.22300
C259        C  0.22200415  0.95545653  0.08138248    -0.22300
C260        C  0.22197753  0.90068821  0.08100597    -0.22300
C261        C  0.14204112  0.07747754  0.90083922    -0.23300
C262        C  0.14263464  0.07902621  0.95514075    -0.23300
C263        C  0.13141796  0.78038327  0.89751721    -0.23300
C264        C  0.12915613  0.78208787  0.95201867    -0.23300
C265        C  0.18593555  0.01868837  0.83148709    -0.18700
C266        C  0.18690520  0.82624971  0.83086920    -0.18700
C267        C  0.18005600  0.83102918  0.02143069    -0.18700
C268        C  0.18349593  0.02272817  0.02258325    -0.18700
H269        H  0.25256611  0.97265364  0.74647146     0.14200
H270        H  0.25273367  0.86839009  0.74590371     0.14200
H271        H  0.23774634  0.98128322  0.11232146     0.14200
H272        H  0.23877571  0.87703794  0.11160988     0.14200
H273        H  0.12051599  0.10493795  0.87711535     0.12500
H274        H  0.12215033  0.10757932  0.98049492     0.12500
H275        H  0.10550150  0.75821071  0.87141904     0.12500
H276        H  0.10100555  0.76163264  0.97668631     0.12500
H277        H  0.15872647  0.92337900  0.87727399     0.25800
H278        H  0.15928423  0.92600661  0.97375873     0.25800
N279        N  0.92871065  0.18671255  0.00485882    -0.37000
N280        N  0.84779770  0.18259322  0.92461343    -0.57500
N281        N  0.93032251  0.18586730  0.84126164    -0.37000
N282        N  0.01043372  0.19959156  0.92155340    -0.57500
C283        C  0.88417626  0.19594929  0.03436425     0.26600
C284        C  0.96977401  0.20643410  0.03292285     0.26600
C285        C  0.88576085  0.19386186  0.81308778     0.26600
C286        C  0.97222443  0.20062536  0.81082774     0.26600
C287        C  0.82074758  0.16491236  0.96742260     0.35200
C288        C  0.82095664  0.16522312  0.88143105     0.35200
C289        C  0.04140760  0.20515200  0.96478512     0.35200
C290        C  0.04264976  0.20454248  0.87849110     0.35200
C291        C  0.89694001  0.22278774  0.08100058    -0.22300
C292        C  0.95075094  0.22968147  0.07999856    -0.22300
C293        C  0.89967167  0.21538736  0.76479618    -0.22300
C294        C  0.95398331  0.21910905  0.76319646    -0.22300
C295        C  0.77751195  0.13533259  0.95122513    -0.23300
C296        C  0.77752971  0.13563948  0.89697851    -0.23300
C297        C  0.09240295  0.21788799  0.94919464    -0.23300
C298        C  0.09326130  0.21768442  0.89516973    -0.23300
C299        C  0.83284410  0.17863141  0.02072082    -0.18700
C300        C  0.02399647  0.20150365  0.01828383    -0.18700
C301        C  0.02654775  0.19787554  0.82473244    -0.18700
C302        C  0.83367101  0.17824461  0.82848117    -0.18700
H303        H  0.87036695  0.23713053  0.11214124     0.14200
H304        H  0.97275235  0.25122173  0.11007986     0.14200
H305        H  0.87370614  0.22746833  0.73367087     0.14200
H306        H  0.97721679  0.23512821  0.73105066     0.14200
H307        H  0.74956147  0.11448977  0.97563856     0.12500
H308        H  0.74943829  0.11509188  0.87209263     0.12500
H309        H  0.12543040  0.22948675  0.97360844     0.12500
H310        H  0.12748343  0.22936891  0.87242151     0.12500
H311        H  0.93169806  0.16307590  0.97044639     0.25800
H312        H  0.93239094  0.16575998  0.87656640     0.25800
N313        N  0.65523772  0.99977058  0.91768657    -0.37000
N314        N  0.65162767  0.91635915  0.83534525    -0.57500
N315        N  0.65573290  0.83883583  0.91862120    -0.37000
N316        N  0.64973210  0.92238728  0.00059602    -0.57500
C317        C  0.64253353  0.02708421  0.87438417     0.26600
C318        C  0.64272246  0.03074119  0.96064951     0.26600
C319        C  0.64433456  0.80805885  0.87560367     0.26600
C320        C  0.64212248  0.81128318  0.96192435     0.26600
C321        C  0.66732701  0.95851707  0.80701337     0.35200
C322        C  0.66896020  0.87273544  0.80795848     0.35200
C323        C  0.66654033  0.96616072  0.02769323     0.35200
C324        C  0.66551420  0.88030456  0.02856127     0.35200
C325        C  0.62030120  0.07551823  0.89001781    -0.22300
C326        C  0.62048573  0.07785843  0.94456737    -0.22300
C327        C  0.62186463  0.76074234  0.89163507    -0.22300
C328        C  0.62040213  0.76280872  0.94623000    -0.22300
C329        C  0.69443475  0.94171217  0.76166698    -0.23300
C330        C  0.69572818  0.88749448  0.76247671    -0.23300
C331        C  0.69339439  0.95155576  0.07238880    -0.23300
C332        C  0.69252505  0.89730522  0.07314361    -0.23300
C333        C  0.65711966  0.01187717  0.82186825    -0.18700
C334        C  0.65607201  0.01893615  0.01315058    -0.18700
C335        C  0.65484284  0.82687018  0.01447977    -0.18700
C336        C  0.65931977  0.81997116  0.82312118    -0.18700
H337        H  0.60645071  0.10649718  0.86478739     0.14200
H338        H  0.60660554  0.11087451  0.96933863     0.14200
H339        H  0.60870872  0.72776812  0.86674866     0.14200
H340        H  0.60596498  0.73168240  0.97136538     0.14200
H341        H  0.71324168  0.96569126  0.73208443     0.12500
H342        H  0.71604498  0.86242373  0.73380023     0.12500
H343        H  0.71359919  0.97682871  0.10040169     0.12500
H344        H  0.71156147  0.87341249  0.10210357     0.12500
H345        H  0.67828467  0.96545382  0.91773291     0.25800
H346        H  0.67859152  0.87330110  0.91849175     0.25800
N347        N  0.92583725  0.66164938  0.00772568    -0.37000
N348        N  0.00976317  0.64889474  0.92808615    -0.57500
N349        N  0.93065789  0.65772106  0.84507456    -0.37000
N350        N  0.84641512  0.65894560  0.92390156    -0.57500
C351        C  0.96705833  0.64782839  0.03816141     0.26600
C352        C  0.88075953  0.65143409  0.03543313     0.26600
C353        C  0.97388986  0.64205830  0.81689293     0.26600
C354        C  0.88806975  0.64607442  0.81490610     0.26600
C355        C  0.04038004  0.65427157  0.97170075     0.35200
C356        C  0.04263821  0.65290404  0.88533365     0.35200
C357        C  0.81791227  0.67705088  0.96641217     0.35200
C358        C  0.82058310  0.67499538  0.88046922     0.35200
C359        C  0.94794660  0.62791929  0.08540579    -0.22300
C360        C  0.89367045  0.62978462  0.08354642    -0.22300
C361        C  0.95869701  0.61925464  0.76881206    -0.22300
C362        C  0.90447855  0.62151991  0.76765771    -0.22300
C363        C  0.09289598  0.65892776  0.95565366    -0.23300
C364        C  0.09419325  0.65806717  0.90202934    -0.23300
C365        C  0.77473833  0.70561017  0.94974933    -0.23300
C366        C  0.77632741  0.70418150  0.89545777    -0.23300
C367        C  0.02144365  0.65463562  0.02533625    -0.18700
C368        C  0.82887202  0.66499174  0.01964782    -0.18700
C369        C  0.83554572  0.66119072  0.82768492    -0.18700
C370        C  0.02675324  0.65164756  0.83159846    -0.18700
H371        H  0.97065352  0.61261440  0.11763710     0.14200
H372        H  0.86708344  0.61638019  0.11431734     0.14200
H373        H  0.98411446  0.60265890  0.73772954     0.14200
H374        H  0.88018826  0.60699664  0.73543585     0.14200
H375        H  0.12838036  0.66459945  0.97791887     0.12500
H376        H  0.13034351  0.66260094  0.87965184     0.12500
H377        H  0.74589025  0.72669079  0.97385645     0.12500
H378        H  0.74886632  0.72373409  0.87022107     0.12500
H379        H  0.92847044  0.68256787  0.97269902     0.25800
H380        H  0.93084289  0.68125771  0.87972226     0.25800
C381        C  0.51841402  0.15946052  0.13890128    -0.05600
C382        C  0.49600103  0.19266868  0.10119382    -0.05500
C383        C  0.44130480  0.19930276  0.09845497    -0.23700
C384        C  0.40752565  0.17263416  0.13314699     0.18500
C385        C  0.42939185  0.14012684  0.17211929     0.15700
C386        C  0.48468351  0.13408827  0.17509495    -0.18700
C387        C  0.39544180  0.11280655  0.20624868    -0.20600
C388        C  0.34061596  0.11600767  0.20050782    -0.13100
C389        C  0.31845336  0.14727167  0.16112596     0.03600
C390        C  0.35227543  0.17656257  0.12833080    -0.25300
H391        H  0.52079626  0.21295488  0.07286511     0.08600
H392        H  0.42539047  0.22441662  0.06836241     0.12200
H393        H  0.50122274  0.10821105  0.20420949     0.12200
H394        H  0.41128107  0.08779610  0.23646089     0.11900
H395        H  0.31541562  0.09321510  0.22645472     0.12500
H396        H  0.33572415  0.20041367  0.09753091     0.14400
C397        C  0.68234820  0.52379871  0.12943817    -0.05600
C398        C  0.63906682  0.49987742  0.10368894    -0.05500
C399        C  0.63351815  0.44466743  0.10170696    -0.23700
C400        C  0.67114989  0.41258075  0.12545264     0.18500
C401        C  0.71413457  0.43659487  0.15226176     0.15700
C402        C  0.71936459  0.49181026  0.15417475    -0.18700
C403        C  0.75185530  0.40505576  0.17612664    -0.20600
C404        C  0.74759071  0.35008934  0.17293825    -0.13100
C405        C  0.70560208  0.32545509  0.14562953     0.03600
C406        C  0.66712905  0.35699353  0.12221664    -0.25300
H407        H  0.60991938  0.52378771  0.08428104     0.08600
H408        H  0.60024364  0.42709819  0.08108361     0.12200
H409        H  0.75290073  0.50975965  0.17411846     0.12200
H410        H  0.78500452  0.42286189  0.19678755     0.11900
H411        H  0.77804349  0.32684352  0.19117337     0.12500
H412        H  0.63476158  0.33843737  0.10092669     0.14400
C413        C  0.15828348  0.53005511  0.15088617    -0.05600
C414        C  0.19889841  0.50597128  0.12007114    -0.05500
C415        C  0.20369541  0.45064919  0.11641356    -0.23700
C416        C  0.16828328  0.41820541  0.14391448     0.18500
C417        C  0.12861479  0.44200565  0.17670263     0.15700
C418        C  0.12370058  0.49765116  0.17981049    -0.18700
C419        C  0.09372720  0.40969325  0.20490021    -0.20600
C420        C  0.09714785  0.35442033  0.19965525    -0.13100
C421        C  0.13520965  0.33011709  0.16572428     0.03600
C422        C  0.17115199  0.36246149  0.13834223    -0.25300
H423        H  0.22598620  0.52988710  0.09720771     0.08600
H424        H  0.23454883  0.43324001  0.09130784     0.12200
H425        H  0.09231662  0.51563558  0.20386484     0.12200
H426        H  0.06320368  0.42715657  0.23039327     0.11900
H427        H  0.06874510  0.33066639  0.22108170     0.12500
H428        H  0.20072829  0.34436556  0.11212383     0.14400
C429        C  0.31755615  0.71870481  0.16317355    -0.05600
C430        C  0.34132527  0.74649593  0.20564967    -0.05500
C431        C  0.39630374  0.74670175  0.21079655    -0.23700
C432        C  0.42836668  0.71927597  0.17344357     0.18500
C433        C  0.40455130  0.68944404  0.13191670     0.15700
C434        C  0.34947988  0.68900263  0.12732243    -0.18700
C435        C  0.43623249  0.66208347  0.09440231    -0.20600
C436        C  0.49108184  0.66621340  0.09646467    -0.13100
C437        C  0.51537734  0.69741028  0.13633983     0.03600
C438        C  0.48373969  0.72270880  0.17569519    -0.25300
H439        H  0.31753241  0.76929318  0.23409901     0.08600
H440        H  0.41378436  0.76949292  0.24310844     0.12200
H441        H  0.33164820  0.66685135  0.09472967     0.12200
H442        H  0.41859121  0.63872935  0.06255239     0.11900
H443        H  0.51450235  0.64577601  0.06598527     0.12500
H444        H  0.50200233  0.74674885  0.20668116     0.14400
C445        C  0.14936892  0.71201046  0.32730440    -0.05600
C446        C  0.18362922  0.74978551  0.35049893    -0.05500
C447        C  0.19117537  0.75173288  0.40504693    -0.23700
C448        C  0.16421079  0.71621999  0.43737190     0.18500
C449        C  0.13170063  0.67641401  0.41414779     0.15700
C450        C  0.12495217  0.67415186  0.35911619    -0.18700
C451        C  0.10468000  0.64099933  0.44657216    -0.20600
C452        C  0.10781214  0.64651871  0.50153905    -0.13100
C453        C  0.13812676  0.68747448  0.52501139     0.03600
C454        C  0.16746031  0.72130863  0.49260151    -0.25300
H455        H  0.20372811  0.77879563  0.32652515     0.08600
H456        H  0.21667182  0.78211031  0.42207042     0.12200
H457        H  0.09874231  0.64473779  0.34147790     0.12200
H458        H  0.07983982  0.61009580  0.42950673     0.11900
H459        H  0.08498521  0.61971089  0.52567972     0.12500
H460        H  0.19126928  0.75275728  0.51026965     0.14400
C461        C  0.15863367  0.13401387  0.52291696    -0.05600
C462        C  0.19140162  0.09570109  0.49759205    -0.05500
C463        C  0.19630440  0.09321390  0.44253567    -0.23700
C464        C  0.16778754  0.12842635  0.41193728     0.18500
C465        C  0.13594831  0.16811141  0.43716547     0.15700
C466        C  0.13229382  0.17122116  0.49254492    -0.18700
C467        C  0.10638309  0.20246563  0.40656370    -0.20600
C468        C  0.10646714  0.19601707  0.35156401    -0.13100
C469        C  0.13685407  0.15575502  0.32632162     0.03600
C470        C  0.16873215  0.12309410  0.35660628    -0.25300
H471        H  0.21249421  0.06689571  0.52037586     0.08600
H472        H  0.22097842  0.06267939  0.42388341     0.12200
H473        H  0.10678307  0.20072005  0.51179143     0.12200
H474        H  0.08190839  0.23316339  0.42520611     0.11900
H475        H  0.08204470  0.22204059  0.32875840     0.12500
H476        H  0.19212298  0.09185243  0.33735900     0.14400
C477        C  0.16864665  0.31919015  0.69984821    -0.05600
C478        C  0.21407225  0.34258723  0.72217340    -0.05500
C479        C  0.22014682  0.39792228  0.72482106    -0.23700
C480        C  0.18087908  0.43115575  0.70530276     0.18500
C481        C  0.13569198  0.40794050  0.68165945     0.15700
C482        C  0.12994960  0.35239543  0.67891534    -0.18700
C483        C  0.09623777  0.44065632  0.66219935    -0.20600
C484        C  0.10068305  0.49572785  0.66724502    -0.13100
C485        C  0.14468594  0.51977709  0.69193253     0.03600
C486        C  0.18528143  0.48703067  0.71014842    -0.25300
H487        H  0.24452077  0.31811021  0.73877850     0.08600
H488        H  0.25513475  0.41472011  0.74303396     0.12200
H489        H  0.09461902  0.33513866  0.66172301     0.12200
H490        H  0.06140627  0.42365973  0.64381050     0.11900
H491        H  0.06875304  0.51957218  0.65246600     0.12500
H492        H  0.21927028  0.50480002  0.72938878     0.14400
C493        C  0.70607860  0.16116766  0.52518206    -0.05600
C494        C  0.73029471  0.20642645  0.50384482    -0.05500
C495        C  0.73126142  0.21417147  0.44897611    -0.23700
C496        C  0.70790707  0.17689967  0.41414215     0.18500
C497        C  0.68195975  0.13232767  0.43546990     0.15700
C498        C  0.68125142  0.12473488  0.49048279    -0.18700
C499        C  0.65801557  0.09520103  0.40137120    -0.20600
C500        C  0.66106098  0.10097288  0.34666693    -0.13100
C501        C  0.68844961  0.14387518  0.32418033     0.03600
C502        C  0.71112203  0.18247146  0.35849824    -0.25300
H503        H  0.74967532  0.23535769  0.52950472     0.08600
H504        H  0.75111885  0.24882347  0.43375943     0.12200
H505        H  0.66218463  0.08981297  0.50614157     0.12200
H506        H  0.63767369  0.06098298  0.41696473     0.11900
H507        H  0.64295726  0.07050577  0.32181437     0.12500
H508        H  0.73232896  0.21575118  0.34207354     0.14400
C509        C  0.52654686  0.14701704  0.70146475    -0.05600
C510        C  0.50280196  0.18492591  0.73605236    -0.05500
C511        C  0.44803970  0.19026357  0.73883796    -0.23700
C512        C  0.41588457  0.15725755  0.70756951     0.18500
C513        C  0.43923782  0.12040886  0.67092872     0.15700
C514        C  0.49464478  0.11595208  0.66757118    -0.18700
C515        C  0.40664893  0.08732590  0.63994557    -0.20600
C516        C  0.35167709  0.08944038  0.64663313    -0.13100
C517        C  0.32832766  0.12468918  0.68438426     0.03600
C518        C  0.36078908  0.15929433  0.71387420    -0.25300
H519        H  0.52670668  0.20974891  0.76201839     0.08600
H520        H  0.43080446  0.21901590  0.76675428     0.12200
H521        H  0.51267878  0.08654690  0.64083840     0.12200
H522        H  0.42367310  0.05894074  0.61152328     0.11900
H523        H  0.32750831  0.06243016  0.62321360     0.12500
H524        H  0.34328366  0.18696017  0.74274899     0.14400
C525        C  0.68339711  0.69625755  0.32047976    -0.05600
C526        C  0.64739572  0.73026612  0.34756398    -0.05500
C527        C  0.64408687  0.73189519  0.40294695    -0.23700
C528        C  0.67723956  0.70006509  0.43279493     0.18500
C529        C  0.71247100  0.66437010  0.40636008     0.15700
C530        C  0.71498390  0.66225398  0.35033293    -0.18700
C531        C  0.74582466  0.63287682  0.43656021    -0.20600
C532        C  0.74564161  0.63811407  0.49208618    -0.13100
C533        C  0.71203767  0.67488943  0.51876838     0.03600
C534        C  0.67701001  0.70484898  0.48856075    -0.25300
H535        H  0.62236532  0.75664300  0.32583217     0.08600
H536        H  0.61661215  0.75929655  0.42248015     0.12200
H537        H  0.74314090  0.63601030  0.33016673     0.12200
H538        H  0.77303889  0.60511006  0.41718886     0.11900
H539        H  0.77297606  0.61437491  0.51406933     0.12500
H540        H  0.65061990  0.73319343  0.50831341     0.14400
C541        C  0.52712958  0.68551297  0.70453891    -0.05600
C542        C  0.50250323  0.65831822  0.74625834    -0.05500
C543        C  0.44752717  0.65714422  0.75194105    -0.23700
C544        C  0.41548396  0.68305098  0.71599837     0.18500
C545        C  0.43924473  0.71016390  0.67350983     0.15700
C546        C  0.49495482  0.71117696  0.66791046    -0.18700
C547        C  0.40673705  0.73624273  0.63783906    -0.20600
C548        C  0.35151609  0.73533661  0.64412753    -0.13100
C549        C  0.32743798  0.70839818  0.68627463     0.03600
C550        C  0.36007377  0.68240995  0.72214871    -0.25300
H551        H  0.52587488  0.63841179  0.77535989     0.08600
H552        H  0.43007581  0.63621478  0.78480628     0.12200
H553        H  0.51314907  0.73288360  0.63596515     0.12200
H554        H  0.42400888  0.75750172  0.60511632     0.11900
H555        H  0.32763128  0.75615970  0.61611896     0.12500
H556        H  0.34241828  0.66182433  0.75514803     0.14400
C557        C  0.71209777  0.51431088  0.69595767    -0.05600
C558        C  0.74808988  0.48915421  0.66050661    -0.05500
C559        C  0.75000122  0.43410473  0.65564718    -0.23700
C560        C  0.71627888  0.40330410  0.68650575     0.18500
C561        C  0.67844380  0.42805522  0.72081441     0.15700
C562        C  0.67627523  0.48358739  0.72501845    -0.18700
C563        C  0.64486052  0.39677617  0.75166796    -0.20600
C564        C  0.65040555  0.34161408  0.75020179    -0.13100
C565        C  0.68959514  0.31720741  0.71786340     0.03600
C566        C  0.72131514  0.34817439  0.68500060    -0.25300
H567        H  0.77567487  0.51206299  0.63717900     0.08600
H568        H  0.77889547  0.41564206  0.62891399     0.12200
H569        H  0.64835592  0.50269233  0.75238384     0.12200
H570        H  0.61541525  0.41498909  0.77793160     0.11900
H571        H  0.62520301  0.31823512  0.77561123     0.12500
H572        H  0.75108473  0.32951324  0.65935878     0.14400
loop_ 
_geom_bond_atom_site_label_1 
_geom_bond_atom_site_label_2 
_geom_bond_distance 
_geom_bond_site_symmetry_2 
_ccdc_geom_bond_type 
O1           C16   1.264       .  A
O1           Al9   1.925       .  S
C2           O12   1.257       .  A
C2            O3   1.257       .  A
C2          C369   1.498       .  S
O3           Al5   1.913       .  S
O4            C6   1.259       .  A
O4           Al5   1.885       .  S
Al5          O13   1.893       .  S
Al5          O15   1.897       .  S
Al5          O14   1.798       .  S
C6           O19   1.263       .  A
C6          C336   1.486       .  S
O7           C17   1.260       .  A
O7           Al9   1.910       .  S
O8           C21   1.261       .  A
O8          Al18   1.908       .  S
Al9          O22   1.918       .  S
Al9          O19   1.914       .  S
Al9          O14   1.796       .  S
O10          C17   1.258       .  A
O10         Al18   1.900       .  S
O11          C20   1.260       .  A
O11         Al18   1.886       .  S
O12         Al18   1.900       .  S
O13          C20   1.262       .  A
O14         Al18   1.796       .  S
O15          C16   1.259       .  A
C16         C541   1.493       .  S
C17         C233   1.501       .  S
C20         C557   1.469       .  S
C21          O22   1.263       .  A
C21         C533   1.495       .  S
O23          C38   1.265       .  A
O23         Al31   1.909       .  S
C24          O34   1.266       .  A
C24          O25   1.256       .  A
C24         C333   1.483       .  S
O25         Al27   1.870       .  S
O26          C28   1.264       .  A
O26         Al27   1.935       .  S
Al27         O35   1.909       .  S
Al27         O37   1.867       .  S
Al27         O36   1.780       .  S
C28          O41   1.256       .  A
C28         C302   1.504       .  S
O29          C39   1.265       .  A
O29         Al31   1.926       .  S
O30          C43   1.267       .  A
O30         Al40   1.940       .  S
Al31         O44   1.893       .  S
Al31         O41   1.894       .  S
Al31         O36   1.778       .  S
O32          C39   1.260       .  A
O32         Al40   1.887       .  S
O33          C42   1.263       .  A
O33         Al40   1.902       .  S
O34         Al40   1.938       .  S
O35          C42   1.265       .  A
O36         Al40   1.783       .  S
O37          C38   1.255       .  A
C38         C565   1.465       .  S
C39         C234   1.492       .  S
C42         C509   1.475       .  S
C43          O44   1.258       .  A
C43         C493   1.491       .  S
O45          C60   1.257       .  A
O45         Al53   1.894       .  S
C46          O56   1.256       .  A
C46          O47   1.264       .  A
C46         C231   1.486       .  S
O47         Al49   1.931       .  S
O48          C50   1.264       .  A
O48         Al49   1.906       .  S
Al49         O57   1.896       .  S
Al49         O59   1.925       .  S
Al49         O58   1.793       .  S
C50          O63   1.266       .  A
C50         C301   1.515       .  S
O51          C61   1.259       .  A
O51         Al53   1.892       .  S
O52          C65   1.257       .  A
O52         Al62   1.882       .  S
Al53         O66   1.920       .  S
Al53         O63   1.930       .  S
Al53         O58   1.780       .  S
O54          C61   1.257       .  A
O54         Al62   1.898       .  S
O55          C64   1.261       .  A
O55         Al62   1.896       .  S
O56         Al62   1.876       .  S
O57          C64   1.263       .  A
O58         Al62   1.788       .  S
O59          C60   1.263       .  A
C60         C477   1.488       .  S
C61         C265   1.501       .  S
C64         C461   1.470       .  S
C65          O66   1.265       .  A
C65         C517   1.480       .  S
O67          C82   1.268       .  A
O67         Al75   1.922       .  S
C68          O78   1.263       .  A
C68          O69   1.260       .  A
C68         C370   1.495       .  S
O69         Al71   1.886       .  S
O70          C72   1.254       .  A
O70         Al71   1.900       .  S
Al71         O79   1.892       .  S
Al71         O81   1.871       .  S
Al71         O80   1.788       .  S
C72          O85   1.255       .  A
C72         C232   1.487       .  S
O73          C83   1.262       .  A
O73         Al75   1.907       .  S
O74          C87   1.262       .  A
O74         Al84   1.919       .  S
Al75         O88   1.905       .  S
Al75         O85   1.896       .  S
Al75         O80   1.788       .  S
O76          C83   1.269       .  A
O76         Al84   1.922       .  S
O77          C86   1.268       .  A
O77         Al84   1.936       .  S
O78         Al84   1.929       .  S
O79          C86   1.259       .  A
O80         Al84   1.789       .  S
O81          C82   1.259       .  A
C82         C453   1.473       .  S
C83         C266   1.506       .  S
C86         C485   1.489       .  S
C87          O88   1.260       .  A
C87         C549   1.494       .  S
O89         C104   1.259       .  A
O89         Al97   1.892       .  S
C90         O100   1.263       .  A
C90          O91   1.260       .  A
C90         C367   1.506       .  S
O91         Al93   1.917       .  S
O92          C94   1.265       .  A
O92         Al93   1.915       .  S
Al93        O101   1.892       .  S
Al93        O103   1.907       .  S
Al93        O102   1.779       .  S
C94         O107   1.257       .  A
C94         C267   1.502       .  S
O95         C105   1.258       .  A
O95         Al97   1.887       .  S
O96         C109   1.264       .  A
O96        Al106   1.904       .  S
Al97        O110   1.889       .  S
Al97        O107   1.895       .  S
Al97        O102   1.780       .  S
O98         C105   1.264       .  A
O98        Al106   1.930       .  S
O99         C108   1.265       .  A
O99        Al106   1.929       .  S
O100       Al106   1.910       .  S
O101        C108   1.260       .  A
O102       Al106   1.784       .  S
O103        C104   1.262       .  A
C104        C429   1.477       .  S
C105        C198   1.489       .  S
C108        C413   1.484       .  S
C109        O110   1.260       .  A
C109        C445   1.471       .  S
O111        C126   1.264       .  A
O111       Al119   1.920       .  S
C112        O122   1.262       .  A
C112        O113   1.258       .  A
C112        C368   1.501       .  S
O113       Al115   1.898       .  S
O114        C116   1.262       .  A
O114       Al115   1.916       .  S
Al115       O123   1.912       .  S
Al115       O125   1.916       .  S
Al115       O124   1.788       .  S
C116        O129   1.263       .  A
C116        C199   1.492       .  S
O117        C127   1.263       .  A
O117       Al119   1.928       .  S
O118        C131   1.262       .  A
O118       Al128   1.901       .  S
Al119       O132   1.905       .  S
Al119       O129   1.900       .  S
Al119       O124   1.784       .  S
O120        C127   1.254       .  A
O120       Al128   1.873       .  S
O121        C130   1.255       .  A
O121       Al128   1.871       .  S
O122       Al128   1.922       .  S
O123        C130   1.264       .  A
O124       Al128   1.789       .  S
O125        C126   1.263       .  A
C126        C525   1.493       .  S
C127        C335   1.486       .  S
C130        C397   1.472       .  S
C131        O132   1.264       .  A
C131        C437   1.478       .  S
O133        C148   1.260       .  A
O133       Al141   1.912       .  S
C134        O144   1.258       .  A
C134        O135   1.257       .  A
C134        C197   1.510       .  S
O135       Al137   1.909       .  S
O136        C138   1.259       .  A
O136       Al137   1.881       .  S
Al137       O145   1.889       .  S
Al137       O147   1.899       .  S
Al137       O146   1.795       .  S
C138        O151   1.267       .  A
C138        C268   1.488       .  S
O139        C149   1.259       .  A
O139       Al141   1.900       .  S
O140        C153   1.258       .  A
O140       Al150   1.884       .  S
Al141       O154   1.925       .  S
Al141       O151   1.930       .  S
Al141       O146   1.798       .  S
O142        C149   1.255       .  A
O142       Al150   1.886       .  S
O143        C152   1.260       .  A
O143       Al150   1.891       .  S
O144       Al150   1.899       .  S
O145        C152   1.260       .  A
O146       Al150   1.794       .  S
O147        C148   1.258       .  A
C148        C389   1.484       .  S
C149        C300   1.504       .  S
C152        C469   1.468       .  S
C153        O154   1.264       .  A
C153        C421   1.486       .  S
O155        C170   1.265       .  A
O155       Al163   1.937       .  S
C156        O166   1.257       .  A
C156        O157   1.256       .  A
C156        C334   1.491       .  S
O157       Al159   1.899       .  S
O158        C160   1.261       .  A
O158       Al159   1.901       .  S
Al159       O167   1.917       .  S
Al159       O169   1.882       .  S
Al159       O168   1.798       .  S
C160        O173   1.254       .  A
C160        C200   1.481       .  S
O161        C171   1.262       .  A
O161       Al163   1.917       .  S
O162        C175   1.261       .  A
O162       Al172   1.906       .  S
Al163       O176   1.861       .  S
Al163       O173   1.879       .  S
Al163       O168   1.804       .  S
O164        C171   1.257       .  A
O164       Al172   1.900       .  S
O165        C174   1.261       .  A
O165       Al172   1.896       .  S
O166       Al172   1.899       .  S
O167        C174   1.265       .  A
O168       Al172   1.802       .  S
O169        C170   1.256       .  A
C170        C501   1.495       .  S
C171        C299   1.505       .  S
C174        C381   1.488       .  S
C175        O176   1.254       .  A
C175        C405   1.473       .  S
N177        C182   1.351   1_655  A
N177        C181   1.357   1_655  A
N177        H209   1.042       .  S
N178        C185   1.356       .  A
N178        C186   1.351       .  A
N179        C184   1.349       .  A
N179        C183   1.347       .  A
N179        H210   1.042       .  S
N180        C187   1.353       .  A
N180        C188   1.356       .  A
C181        C189   1.391       .  A
C181        C197   1.424   1_565  A
C182        C198   1.414       .  A
C182        C190   1.385       .  A
C183        C191   1.387       .  A
C183        C200   1.405   1_565  A
C184        C199   1.408       .  A
C184        C192   1.387       .  A
C185        C197   1.417   1_655  A
C185        C193   1.387       .  A
C186        C200   1.414       .  A
C186        C194   1.382       .  A
C187        C195   1.383       .  A
C187        C198   1.414   1_655  A
C188        C196   1.383       .  A
C188        C199   1.418       .  A
C189        C190   1.377       .  A
C189        H201   1.080       .  S
C190        H202   1.082       .  S
C191        C192   1.376       .  A
C191        H203   1.082       .  S
C192        H204   1.082       .  S
C193        C194   1.370       .  A
C193        H205   1.081       .  S
C194        H206   1.074       .  S
C195        C196   1.367       .  A
C195        H207   1.075       .  S
C196        H208   1.071       .  S
N211        C216   1.349       .  A
N211        C215   1.349       .  A
N211        H243   1.042   1_455  S
N212        C219   1.356       .  A
N212        C220   1.352       .  A
N213        C218   1.356       .  A
N213        C217   1.351       .  A
N213        H244   1.041       .  S
N214        C221   1.354       .  A
N214        C222   1.353       .  A
C215        C223   1.387       .  A
C215        C231   1.408   1_565  A
C216        C232   1.409       .  A
C216        C224   1.388       .  A
C217        C225   1.388       .  A
C217        C234   1.418   1_565  A
C218        C233   1.417       .  A
C218        C226   1.386       .  A
C219        C231   1.408   1_655  A
C219        C227   1.379       .  A
C220        C234   1.418       .  A
C220        C228   1.385       .  A
C221        C229   1.383       .  A
C221        C232   1.413   1_655  A
C222        C230   1.384       .  A
C222        C233   1.418       .  A
C223        C224   1.376       .  A
C223        H235   1.082       .  S
C224        H236   1.082       .  S
C225        C226   1.378       .  A
C225        H237   1.082       .  S
C226        H238   1.081       .  S
C227        C228   1.362       .  A
C227        H239   1.078       .  S
C228        H240   1.066       .  S
C229        C230   1.370       .  A
C229        H241   1.079       .  S
C230        H242   1.073       .  S
N245        C250   1.356       .  A
N245        C249   1.353       .  A
N245        H277   1.044       .  S
N246        C253   1.352       .  A
N246        C254   1.351       .  A
N247        C252   1.354       .  A
N247        C251   1.351       .  A
N247        H278   1.043   1_554  S
N248        C255   1.351       .  A
N248        C256   1.351       .  A
C249        C257   1.390       .  A
C249        C265   1.424   1_565  A
C250        C266   1.421       .  A
C250        C258   1.387       .  A
C251        C259   1.385       .  A
C251        C268   1.413   1_565  A
C252        C267   1.422       .  A
C252        C260   1.392       .  A
C253        C265   1.416       .  A
C253        C261   1.389       .  A
C254        C268   1.409   1_556  A
C254        C262   1.382       .  A
C255        C263   1.380       .  A
C255        C266   1.407       .  A
C256        C264   1.381       .  A
C256        C267   1.409   1_556  A
C257        C258   1.381       .  A
C257        H269   1.081       .  S
C258        H270   1.081       .  S
C259        C260   1.379       .  A
C259        H271   1.082       .  S
C260        H272   1.080       .  S
C261        C262   1.370       .  A
C261        H273   1.080       .  S
C262        H274   1.077       .  S
C263        C264   1.376       .  A
C263        H275   1.080       .  S
C264        H276   1.079       .  S
N279        C284   1.352       .  A
N279        C283   1.358       .  A
N279        H311   1.041   1_554  S
N280        C287   1.356       .  A
N280        C288   1.354       .  A
N281        C286   1.358       .  A
N281        C285   1.359       .  A
N281        H312   1.039       .  S
N282        C289   1.356       .  A
N282        C290   1.358       .  A
C283        C291   1.383       .  A
C283        C299   1.414       .  A
C284        C300   1.420   1_655  A
C284        C292   1.390       .  A
C285        C293   1.388       .  A
C285        C302   1.427       .  A
C286        C301   1.425   1_655  A
C286        C294   1.386       .  A
C287        C299   1.417   1_556  A
C287        C295   1.383       .  A
C288        C302   1.418       .  A
C288        C296   1.385       .  A
C289        C297   1.383       .  A
C289        C300   1.420   1_556  A
C290        C298   1.390       .  A
C290        C301   1.428       .  A
C291        C292   1.372       .  A
C291        H303   1.082       .  S
C292        H304   1.081       .  S
C293        C294   1.377       .  A
C293        H305   1.081       .  S
C294        H306   1.082       .  S
C295        C296   1.369       .  A
C295        H307   1.077       .  S
C296        H308   1.078       .  S
C297        C298   1.363       .  A
C297        H309   1.080       .  S
C298        H310   1.077       .  S
N313        C318   1.352   1_565  A
N313        C317   1.350   1_565  A
N313        H345   1.043       .  S
N314        C321   1.353       .  A
N314        C322   1.352       .  A
N315        C320   1.351       .  A
N315        C319   1.351       .  A
N315        H346   1.043       .  S
N316        C323   1.352       .  A
N316        C324   1.353       .  A
C317        C325   1.388       .  A
C317        C333   1.414       .  A
C318        C334   1.412   1_556  A
C318        C326   1.387       .  A
C319        C327   1.388       .  A
C319        C336   1.413       .  A
C320        C335   1.414   1_556  A
C320        C328   1.388       .  A
C321        C333   1.408   1_565  A
C321        C329   1.382       .  A
C322        C336   1.413       .  A
C322        C330   1.384       .  A
C323        C331   1.383       .  A
C323        C334   1.414   1_565  A
C324        C332   1.382       .  A
C324        C335   1.409       .  A
C325        C326   1.377       .  A
C325        H337   1.082       .  S
C326        H338   1.082       .  S
C327        C328   1.378       .  A
C327        H339   1.082       .  S
C328        H340   1.082       .  S
C329        C330   1.366       .  A
C329        H341   1.079       .  S
C330        H342   1.073       .  S
C331        C332   1.367       .  A
C331        H343   1.073       .  S
C332        H344   1.078       .  S
N347        C352   1.358       .  A
N347        C351   1.355       .  A
N347        H379   1.043   1_554  S
N348        C355   1.358       .  A
N348        C356   1.359       .  A
N349        C354   1.355       .  A
N349        C353   1.349       .  A
N349        H380   1.043       .  S
N350        C357   1.353       .  A
N350        C358   1.355       .  A
C351        C359   1.387       .  A
C351        C367   1.420   1_655  A
C352        C368   1.421       .  A
C352        C360   1.388       .  A
C353        C361   1.387       .  A
C353        C370   1.412   1_655  A
C354        C369   1.413       .  A
C354        C362   1.387       .  A
C355        C367   1.430   1_556  A
C355        C363   1.389       .  A
C356        C370   1.419       .  A
C356        C364   1.381       .  A
C357        C365   1.385       .  A
C357        C368   1.417   1_556  A
C358        C366   1.382       .  A
C358        C369   1.414       .  A
C359        C360   1.375       .  A
C359        H371   1.082       .  S
C360        H372   1.081       .  S
C361        C362   1.373       .  A
C361        H373   1.082       .  S
C362        H374   1.082       .  S
C363        C364   1.353       .  A
C363        H375   1.073       .  S
C364        H376   1.076       .  S
C365        C366   1.370       .  A
C365        H377   1.075       .  S
C366        H378   1.077       .  S
C381        C382   1.409       .  A
C381        C386   1.407       .  A
C382        C383   1.397       .  A
C382        H391   1.083       .  S
C383        C384   1.400       .  A
C383        H392   1.084       .  S
C384        C390   1.408       .  A
C384        C385   1.416       .  A
C385        C387   1.402       .  A
C385        C386   1.410       .  A
C386        H393   1.084       .  S
C387        C388   1.399       .  A
C387        H394   1.084       .  S
C388        C389   1.408       .  A
C388        H395   1.083       .  S
C389        C390   1.405       .  A
C390        H396   1.084       .  S
C397        C398   1.408       .  A
C397        C402   1.400       .  A
C398        C399   1.397       .  A
C398        H407   1.083       .  S
C399        C400   1.401       .  A
C399        H408   1.084       .  S
C400        C406   1.403       .  A
C400        C401   1.415       .  A
C401        C403   1.395       .  A
C401        C402   1.396       .  A
C402        H409   1.085       .  S
C403        C404   1.388       .  A
C403        H410   1.084       .  S
C404        C405   1.409       .  A
C404        H411   1.083       .  S
C405        C406   1.403       .  A
C406        H412   1.084       .  S
C413        C414   1.407       .  A
C413        C418   1.407       .  A
C414        C415   1.399       .  A
C414        H423   1.083       .  S
C415        C416   1.402       .  A
C415        H424   1.084       .  S
C416        C422   1.409       .  A
C416        C417   1.415       .  A
C417        C419   1.400       .  A
C417        C418   1.407       .  A
C418        H425   1.084       .  S
C419        C420   1.397       .  A
C419        H426   1.084       .  S
C420        C421   1.408       .  A
C420        H427   1.083       .  S
C421        C422   1.407       .  A
C422        H428   1.084       .  S
C429        C430   1.406       .  A
C429        C434   1.405       .  A
C430        C431   1.399       .  A
C430        H439   1.083       .  S
C431        C432   1.402       .  A
C431        H440   1.083       .  S
C432        C438   1.405       .  A
C432        C433   1.414       .  A
C433        C435   1.399       .  A
C433        C434   1.399       .  A
C434        H441   1.084       .  S
C435        C436   1.393       .  A
C435        H442   1.084       .  S
C436        C437   1.407       .  A
C436        H443   1.083       .  S
C437        C438   1.406       .  A
C438        H444   1.084       .  S
C445        C446   1.407       .  A
C445        C450   1.401       .  A
C446        C447   1.392       .  A
C446        H455   1.083       .  S
C447        C448   1.398       .  A
C447        H456   1.084       .  S
C448        C454   1.400       .  A
C448        C449   1.416       .  A
C449        C451   1.399       .  A
C449        C450   1.401       .  A
C450        H457   1.084       .  S
C451        C452   1.394       .  A
C451        H458   1.084       .  S
C452        C453   1.407       .  A
C452        H459   1.083       .  S
C453        C454   1.402       .  A
C454        H460   1.084       .  S
C461        C462   1.406       .  A
C461        C466   1.401       .  A
C462        C463   1.393       .  A
C462        H471   1.083       .  S
C463        C464   1.399       .  A
C463        H472   1.084       .  S
C464        C470   1.399       .  A
C464        C465   1.416       .  A
C465        C467   1.399       .  A
C465        C466   1.400       .  A
C466        H473   1.084       .  S
C467        C468   1.393       .  A
C467        H474   1.084       .  S
C468        C469   1.406       .  A
C468        H475   1.083       .  S
C469        C470   1.401       .  A
C470        H476   1.085       .  S
C477        C478   1.408       .  A
C477        C482   1.406       .  A
C478        C479   1.402       .  A
C478        H487   1.083       .  S
C479        C480   1.402       .  A
C479        H488   1.083       .  S
C480        C486   1.413       .  A
C480        C481   1.415       .  A
C481        C483   1.397       .  A
C481        C482   1.406       .  A
C482        H489   1.084       .  S
C483        C484   1.394       .  A
C483        H490   1.084       .  S
C484        C485   1.411       .  A
C484        H491   1.083       .  S
C485        C486   1.407       .  A
C486        H492   1.084       .  S
C493        C494   1.410       .  A
C493        C498   1.405       .  A
C494        C495   1.404       .  A
C494        H503   1.083       .  S
C495        C496   1.404       .  A
C495        H504   1.083       .  S
C496        C502   1.417       .  A
C496        C497   1.415       .  A
C497        C499   1.397       .  A
C497        C498   1.407       .  A
C498        H505   1.084       .  S
C499        C500   1.393       .  A
C499        H506   1.084       .  S
C500        C501   1.411       .  A
C500        H507   1.083       .  S
C501        C502   1.411       .  A
C502        H508   1.084       .  S
C509        C510   1.405       .  A
C509        C514   1.406       .  A
C510        C511   1.392       .  A
C510        H519   1.083       .  S
C511        C512   1.399       .  A
C511        H520   1.084       .  S
C512        C518   1.401       .  A
C512        C513   1.415       .  A
C513        C515   1.402       .  A
C513        C514   1.407       .  A
C514        H521   1.084       .  S
C515        C516   1.399       .  A
C515        H522   1.084       .  S
C516        C517   1.408       .  A
C516        H523   1.083       .  S
C517        C518   1.403       .  A
C518        H524   1.084       .  S
C525        C526   1.407       .  A
C525        C530   1.412       .  A
C526        C527   1.399       .  A
C526        H535   1.083       .  S
C527        C528   1.402       .  A
C527        H536   1.084       .  S
C528        C534   1.409       .  A
C528        C529   1.414       .  A
C529        C531   1.405       .  A
C529        C530   1.414       .  A
C530        H537   1.084       .  S
C531        C532   1.404       .  A
C531        H538   1.083       .  S
C532        C533   1.408       .  A
C532        H539   1.083       .  S
C533        C534   1.410       .  A
C534        H540   1.084       .  S
C541        C542   1.410       .  A
C541        C546   1.410       .  A
C542        C543   1.396       .  A
C542        H551   1.083       .  S
C543        C544   1.400       .  A
C543        H552   1.084       .  S
C544        C550   1.408       .  A
C544        C545   1.414       .  A
C545        C547   1.404       .  A
C545        C546   1.415       .  A
C546        H553   1.084       .  S
C547        C548   1.404       .  A
C547        H554   1.083       .  S
C548        C549   1.409       .  A
C548        H555   1.083       .  S
C549        C550   1.409       .  A
C550        H556   1.084       .  S
C557        C558   1.406       .  A
C557        C562   1.403       .  A
C558        C559   1.389       .  A
C558        H567   1.083       .  S
C559        C560   1.396       .  A
C559        H568   1.084       .  S
C560        C566   1.393       .  A
C560        C561   1.415       .  A
C561        C563   1.401       .  A
C561        C562   1.400       .  A
C562        H569   1.084       .  S
C563        C564   1.395       .  A
C563        H570   1.084       .  S
C564        C565   1.406       .  A
C564        H571   1.083       .  S
C565        C566   1.399       .  A
C566        H572   1.085       .  S
