geometry optimzed in LAMMPS
_audit_creation_date              2020-11-30 
_audit_creation_method            'lammps2cif' 
_symmetry_space_group_name_H-M    'P1' 
_symmetry_Int_Tables_number       1 
_symmetry_cell_setting            triclinic 
loop_ 
_symmetry_equiv_pos_as_xyz 
  x,y,z 
_cell_length_a                    25.448899213674007 
_cell_length_b                    25.35346999835773 
_cell_length_c                    25.356485084857066 
_cell_angle_alpha                 90.0807594323672 
_cell_angle_beta                  89.21712614643408 
_cell_angle_gamma                 90.4842444028301 
loop_ 
_atom_site_label 
_atom_site_type_symbol 
_atom_site_fract_x 
_atom_site_fract_y 
_atom_site_fract_z 
_atom_site_charge 
C1          C  0.72794385  0.72627404  0.99989133     0.02850
C2          C  0.74082897  0.67247387  0.00272411    -0.13300
C3          C  0.70151715  0.63401616  0.00831604     0.00350
C4          C  0.64877681  0.64852765  0.00588346    -0.11830
C5          C  0.63510712  0.70150282  0.99991613     0.02840
C6          C  0.67451461  0.74058547  0.99922138    -0.11250
H7          H  0.78157071  0.66040426  0.00141920     0.08440
H8          H  0.61829571  0.61840290  0.00774752     0.05970
H9          H  0.66359477  0.78171149  0.99698914     0.05810
C10         C  0.73373019  0.32198675  0.99747333     0.02850
C11         C  0.74878582  0.37219691  0.01600533    -0.13300
C12         C  0.71079649  0.41067624  0.02528100     0.00350
C13         C  0.65786057  0.39665426  0.02383964    -0.11830
C14         C  0.64128694  0.34980562  0.99931394     0.02840
C15         C  0.68020058  0.31272792  0.98511059    -0.11250
H16         H  0.78976811  0.38198124  0.02191363     0.08440
H17         H  0.62924207  0.42571363  0.03623897     0.05970
H18         H  0.66953999  0.27678889  0.96478328     0.05810
C19         C  0.32043360  0.32242444  0.00057854     0.02850
C20         C  0.37538514  0.31522720  0.00555946    -0.13300
C21         C  0.41165173  0.35137518  0.98217189     0.00350
C22         C  0.39028738  0.39586747  0.95739662    -0.11830
C23         C  0.33806927  0.40980830  0.96644610     0.02840
C24         C  0.30231215  0.37135794  0.98294895    -0.11250
H25         H  0.38871174  0.28151408  0.02732369     0.08440
H26         H  0.41519192  0.42353862  0.93620279     0.05970
H27         H  0.26084285  0.38045831  0.98341178     0.05810
C28         C  0.32098583  0.72586008  0.98610722     0.02850
C29         C  0.37422052  0.73861299  0.97491616    -0.13300
C30         C  0.41305054  0.69984513  0.97720662     0.00350
C31         C  0.39830826  0.64688197  0.98094960    -0.11830
C32         C  0.34554671  0.63285653  0.98760609     0.02840
C33         C  0.30792427  0.67226137  0.99501250    -0.11250
H34         H  0.38619113  0.77856114  0.96569225     0.08440
H35         H  0.42805949  0.61650773  0.97945830     0.05970
H36         H  0.26850501  0.66056877  0.00662310     0.05810
C37         C  0.73552948  0.03286552  0.70186617     0.02850
C38         C  0.68232592  0.04778033  0.70963397    -0.13300
C39         C  0.64299631  0.03025919  0.67450492     0.00350
C40         C  0.65982782  0.00050069  0.63058890    -0.11830
C41         C  0.71259572  0.99906587  0.61562200     0.02840
C42         C  0.75063917  0.01087731  0.65302310    -0.11250
H43         H  0.67271339  0.07222202  0.74312419     0.08440
H44         H  0.63154713  0.98372793  0.60370975     0.05970
H45         H  0.79158559  0.00392145  0.64349399     0.05810
C46         C  0.32335280  0.02692341  0.70703601     0.02850
C47         C  0.37821769  0.02580184  0.71466125    -0.13300
C48         C  0.41314268  0.04358173  0.67442314     0.00350
C49         C  0.39097288  0.06069444  0.62693919    -0.11830
C50         C  0.33837542  0.05034530  0.61575294     0.02840
C51         C  0.30391538  0.03620415  0.65648580    -0.11250
H52         H  0.39269326  0.01162987  0.75182461     0.08440
H53         H  0.41559779  0.07756136  0.59607293     0.05970
H54         H  0.26227045  0.03229607  0.64880493     0.05810
C55         C  0.31671620  0.03398715  0.30043341     0.02850
C56         C  0.30209133  0.03056440  0.35414192    -0.13300
C57         C  0.34008525  0.03427714  0.39330340     0.00350
C58         C  0.39328333  0.03573057  0.37922165    -0.11830
C59         C  0.40879737  0.03604089  0.32618524     0.02840
C60         C  0.37060170  0.03825533  0.28691044    -0.11250
H61         H  0.26117709  0.02587560  0.36565944     0.08440
H62         H  0.42278271  0.03589561  0.40970557     0.05970
H63         H  0.38295690  0.04120836  0.24597599     0.05810
C64         C  0.72434907  0.01718925  0.29910195     0.02850
C65         C  0.73826076  0.01535011  0.35258116    -0.13300
C66         C  0.69965669  0.01060049  0.39205836     0.00350
C67         C  0.64658265  0.01211500  0.37861279    -0.11830
C68         C  0.63186459  0.01635009  0.32577130     0.02840
C69         C  0.67070533  0.01711879  0.28590973    -0.11250
H70         H  0.77926368  0.01664123  0.36355208     0.08440
H71         H  0.61662823  0.01031966  0.40940885     0.05970
H72         H  0.65918364  0.01829842  0.24496007     0.05810
C73         C  0.02058557  0.32062405  0.70957466     0.02850
C74         C  0.02390736  0.37454489  0.72239945    -0.13300
C75         C  0.02487390  0.41261407  0.68233864     0.00350
C76         C  0.02214324  0.39656223  0.62961689    -0.11830
C77         C  0.01946535  0.34305222  0.61637806     0.02840
C78         C  0.01855023  0.30494696  0.65639565    -0.11250
H79         H  0.02624182  0.38672454  0.76329179     0.08440
H80         H  0.02302898  0.42595137  0.59855669     0.05970
H81         H  0.01681339  0.26343771  0.64626510     0.05810
C82         C  0.02716856  0.73036266  0.70447162     0.02850
C83         C  0.02644961  0.74450213  0.65086517    -0.13300
C84         C  0.02559132  0.70537314  0.61187233     0.00350
C85         C  0.02626462  0.65220454  0.62637116    -0.11830
C86         C  0.02820254  0.63753258  0.67949851     0.02840
C87         C  0.02805294  0.67669187  0.71862657    -0.11250
H88         H  0.02641875  0.78571928  0.63959505     0.08440
H89         H  0.02599606  0.62200730  0.59602456     0.05970
H90         H  0.02914350  0.66551893  0.75983177     0.05810
C91         C  0.03332645  0.31722588  0.30000161     0.02850
C92         C  0.03097660  0.30326094  0.35359432    -0.13300
C93         C  0.02755227  0.34251902  0.39236988     0.00350
C94         C  0.02686372  0.39563929  0.37743568    -0.11830
C95         C  0.02897610  0.40996087  0.32412499     0.02840
C96         C  0.03233139  0.37065035  0.28530552    -0.11250
H97         H  0.03090526  0.26207003  0.36496603     0.08440
H98         H  0.02404400  0.42601531  0.40748050     0.05970
H99         H  0.03322861  0.38146554  0.24396919     0.05810
C100        C  0.02497792  0.72662756  0.29506995     0.02850
C101        C  0.02511168  0.74184097  0.34838365    -0.13300
C102        C  0.02535369  0.70339114  0.38798000     0.00350
C103        C  0.02558888  0.64994830  0.37420640    -0.11830
C104        C  0.02529500  0.63442729  0.32123579     0.02840
C105        C  0.02506106  0.67283593  0.28153569    -0.11250
H106        H  0.02470090  0.78327363  0.35893411     0.08440
H107        H  0.02561266  0.62022344  0.40493211     0.05970
H108        H  0.02458978  0.66100563  0.24046005     0.05810
O109        O  0.94247324  0.87123576  0.99410191    -0.86770
O110        O  0.93941865  0.17203261  0.00091160    -0.86930
O111        O  0.87470103  0.02246816  0.09054305    -0.88600
O112        O  0.87750546  0.02965110  0.91686211    -0.87360
O113        O  0.94148043  0.02889927  0.85334332    -0.86900
O114        O  0.93831559  0.02472226  0.15378684    -0.88320
O115        O  0.87677160  0.10748655  0.99507318    -0.86800
O116        O  0.87721912  0.93304393  0.99701755    -0.86380
Zr117      Zr  0.91844909  0.02165236  0.00305017     2.84310
O118        O  0.97347960  0.07638100  0.95202481    -1.08360
O119        O  0.97078227  0.96800176  0.05542085    -1.09090
C120        C  0.89387272  0.88477212  0.99410066     1.06340
C121        C  0.89141227  0.15634398  0.99491797     1.06280
C122        C  0.89003265  0.02387828  0.13917287     1.09260
C123        C  0.89285722  0.03164869  0.86817238     1.07040
H124        H  0.94828488  0.09778960  0.07933250     0.32600
O125        O  0.97038135  0.07587906  0.05729013    -1.29310
H126        H  0.95134871  0.94942410  0.92493021     0.32280
O127        O  0.97267146  0.97087821  0.94790328    -1.30990
O128        O  0.11143503  0.17410438  0.00920710    -0.86760
O129        O  0.11090307  0.87551154  0.99633420    -0.88260
O130        O  0.02795922  0.10686498  0.15427518    -0.86840
O131        O  0.02379812  0.11347079  0.85545066    -0.86890
O132        O  0.02740018  0.94086249  0.85108096    -0.86600
O133        O  0.01993532  0.93511484  0.15083078    -0.86410
O134        O  0.17192584  0.02552773  0.09103134    -0.86780
O135        O  0.17550884  0.02568286  0.91728400    -0.86240
O136        O  0.10682454  0.01951698  0.15400583    -0.87300
O137        O  0.11279832  0.02645368  0.85285923    -0.86460
O138        O  0.02772500  0.17235128  0.09171356    -0.86860
O139        O  0.02183488  0.87218706  0.08544190    -0.86580
O140        O  0.02877259  0.87561300  0.91384488    -0.86230
O141        O  0.02564658  0.17614124  0.92099900    -0.86640
O142        O  0.17330835  0.10993878  0.01243543    -0.86940
O143        O  0.17446987  0.93862393  0.00120563    -0.88280
Zr144      Zr  0.02548004  0.13016705  0.00529485     2.83100
Zr145      Zr  0.02551185  0.91758117  0.00034901     2.83500
Zr146      Zr  0.02307824  0.02169381  0.10919065     2.84090
Zr147      Zr  0.02675807  0.02615429  0.89636282     2.83360
Zr148      Zr  0.13120241  0.02422332  0.00378362     2.84220
O149        O  0.07918178  0.97233367  0.94852040    -1.08850
O150        O  0.07710624  0.07601351  0.05745131    -1.08350
C151        C  0.15946882  0.15865152  0.01325017     1.06310
C152        C  0.15945745  0.89005225  0.99718523     1.08930
C153        C  0.02930382  0.15569173  0.13975187     1.06490
C154        C  0.02383977  0.16165589  0.87224003     1.06850
C155        C  0.02852911  0.89201974  0.86566402     1.06430
C156        C  0.02016962  0.88694212  0.13426180     1.05980
C157        C  0.15550000  0.02288785  0.13955975     1.06410
C158        C  0.16087454  0.02576056  0.86854914     1.05920
H159        H  0.09904516  0.94684187  0.07738610     0.32600
O160        O  0.07762680  0.96924620  0.05583603    -1.29950
H161        H  0.10232742  0.10161706  0.92934412     0.32620
O162        O  0.07992602  0.07892460  0.95059046    -1.31330
C163        C  0.97533626  0.78184856  0.23167813    -0.02130
C164        C  0.02368680  0.76717169  0.25341954     0.07550
C165        C  0.07061328  0.79178886  0.23609877    -0.02240
C166        C  0.06922803  0.83076095  0.19671908    -0.02240
C167        C  0.02090098  0.84539379  0.17479198     0.07690
C168        C  0.97383981  0.82122174  0.19268358    -0.02440
Br169      Br  0.90708706  0.84301133  0.16548376    -0.00990
Br170      Br  0.91110646  0.74845456  0.25621036    -0.01060
Br171      Br  0.13349905  0.86454067  0.17290651    -0.01020
Br172      Br  0.13668050  0.77191684  0.26642851    -0.01000
C173        C  0.07272912  0.49527941  0.29929845    -0.02130
C174        C  0.02625960  0.46652059  0.31038030     0.07550
C175        C  0.97816258  0.49319446  0.31625516    -0.02240
C176        C  0.97725560  0.54862545  0.31567444    -0.02240
C177        C  0.02438975  0.57747949  0.30888535     0.07690
C178        C  0.07178068  0.55081603  0.29853883    -0.02440
Br179      Br  0.13591364  0.59058962  0.28749021    -0.00990
Br180      Br  0.13820843  0.45863291  0.28927339    -0.01060
Br181      Br  0.91198043  0.58537459  0.32714000    -0.01020
Br182      Br  0.91392574  0.45360914  0.32750566    -0.01000
C183        C  0.98501706  0.25226114  0.24472066    -0.02130
C184        C  0.03303702  0.27563260  0.25923023     0.07550
C185        C  0.08035756  0.25885518  0.23535094    -0.02240
C186        C  0.07954049  0.21894346  0.19661476    -0.02240
C187        C  0.03127178  0.19604346  0.18162977     0.07690
C188        C  0.98425164  0.21247403  0.20614340    -0.02440
Br189      Br  0.91869113  0.18039878  0.18672897    -0.00990
Br190      Br  0.92016653  0.27543954  0.27732710    -0.01060
Br191      Br  0.14455891  0.19477570  0.16529718    -0.01020
Br192      Br  0.14610703  0.29033905  0.25625529    -0.01000
C193        C  0.07242618  0.72396554  0.52685123    -0.02130
C194        C  0.02473633  0.71860879  0.55525897     0.07550
C195        C  0.97674902  0.71709272  0.52827169    -0.02240
C196        C  0.97671050  0.71664348  0.47281622    -0.02240
C197        C  0.02466561  0.71759942  0.44442347     0.07690
C198        C  0.07239413  0.72339890  0.47137012    -0.02440
Br199      Br  0.13779960  0.72650717  0.43213275    -0.00990
Br200      Br  0.13788352  0.72804520  0.56415314    -0.01060
Br201      Br  0.91132785  0.71115399  0.43551747    -0.01020
Br202      Br  0.91144403  0.71206011  0.56752486    -0.01000
C203        C  0.07173197  0.77819608  0.77820941    -0.02130
C204        C  0.02760337  0.77185683  0.74568721     0.07550
C205        C  0.98409507  0.80550988  0.75225864    -0.02240
C206        C  0.98519094  0.84589398  0.79040427    -0.02240
C207        C  0.02871077  0.85132437  0.82385363     0.07690
C208        C  0.07174378  0.81698578  0.81794525    -0.02440
Br209      Br  0.13192383  0.82421075  0.86271422    -0.00990
Br210      Br  0.13333551  0.73539255  0.76681630    -0.01060
Br211      Br  0.92622056  0.89278225  0.79784771    -0.01020
Br212      Br  0.92180631  0.79473235  0.71080865    -0.01000
C213        C  0.06749190  0.31964459  0.53329746    -0.02130
C214        C  0.01942038  0.32860670  0.55993864     0.07550
C215        C  0.97282761  0.33346256  0.53109182    -0.02240
C216        C  0.97491903  0.33362885  0.47564226    -0.02240
C217        C  0.02367004  0.32930096  0.44902306     0.07690
C218        C  0.06963060  0.32003620  0.47779168    -0.02440
Br219      Br  0.13601788  0.31217743  0.44112366    -0.00990
Br220      Br  0.13095942  0.31122435  0.57302695    -0.01060
Br221      Br  0.91148581  0.34247148  0.43595149    -0.01020
Br222      Br  0.90677056  0.34329341  0.56786410    -0.01000
C223        C  0.07582107  0.49700584  0.67815058    -0.02130
C224        C  0.02980181  0.46964981  0.69397230     0.07550
C225        C  0.98621638  0.49793752  0.71354594    -0.02240
C226        C  0.98699711  0.55352940  0.71280820    -0.02240
C227        C  0.03139036  0.58075987  0.69254935     0.07690
C228        C  0.07663223  0.55242751  0.67749819    -0.02440
Br229      Br  0.13910591  0.58974460  0.65395369    -0.00990
Br230      Br  0.13708073  0.45830127  0.65525493    -0.01060
Br231      Br  0.92568519  0.59218985  0.73530096    -0.01020
Br232      Br  0.92386844  0.46057421  0.73710291    -0.01000
C233        C  0.97475395  0.21580657  0.80707889    -0.02130
C234        C  0.02224547  0.20377457  0.83220633     0.07550
C235        C  0.06838353  0.23207782  0.81894719    -0.02240
C236        C  0.06800887  0.26973096  0.77827713    -0.02240
C237        C  0.02094207  0.28055301  0.75190438     0.07690
C238        C  0.97415177  0.25400529  0.76679931    -0.02440
Br239      Br  0.90907860  0.27102538  0.73285236    -0.00990
Br240      Br  0.90996413  0.18276078  0.83047841    -0.01060
Br241      Br  0.13234444  0.30541796  0.75754279    -0.01020
Br242      Br  0.13178455  0.22019480  0.85748852    -0.01000
C243        C  0.85116457  0.98829345  0.22409319    -0.02130
C244        C  0.84915501  0.02431303  0.18172301     0.07550
C245        C  0.80808825  0.06126676  0.18093988    -0.02240
C246        C  0.76798994  0.06001864  0.21980718    -0.02240
C247        C  0.76637824  0.01911950  0.25765615     0.07690
C248        C  0.80780815  0.98235152  0.25851087    -0.02440
Br249      Br  0.80454027  0.92131903  0.30422418    -0.00990
Br250      Br  0.91492293  0.95161532  0.24047385    -0.01060
Br251      Br  0.71822447  0.11706281  0.22304444    -0.01020
Br252      Br  0.81080963  0.11853835  0.13156764    -0.01000
C253        C  0.48817349  0.97992335  0.31690163    -0.02130
C254        C  0.46522692  0.03020299  0.31329938     0.07550
C255        C  0.49732273  0.07512260  0.30610053    -0.02240
C256        C  0.55240887  0.07026441  0.30654618    -0.02240
C257        C  0.57536294  0.02031811  0.31357013     0.07690
C258        C  0.54315916  0.97498725  0.31684618    -0.02440
Br259      Br  0.57462232  0.90647175  0.32427710    -0.00990
Br260      Br  0.44405704  0.91813515  0.32534210    -0.01060
Br261      Br  0.59616641  0.13254036  0.30229737    -0.01020
Br262      Br  0.46551328  0.14353019  0.29955302    -0.01000
C263        C  0.24177315  0.99371465  0.17700032    -0.02130
C264        C  0.19562918  0.02404309  0.18192998     0.07550
C265        C  0.18849457  0.05555592  0.22761266    -0.02240
C266        C  0.22996508  0.06265416  0.26316570    -0.02240
C267        C  0.27565362  0.03136802  0.25891915     0.07690
C268        C  0.28020020  0.99530571  0.21646237    -0.02440
Br269      Br  0.33638628  0.94431882  0.21369011    -0.00990
Br270      Br  0.25054306  0.94529902  0.11905136    -0.01060
Br271      Br  0.22458166  0.11846275  0.31512211    -0.01020
Br272      Br  0.12149639  0.08692097  0.24502565    -0.01000
C273        C  0.32521858  0.99145788  0.48049655    -0.02130
C274        C  0.32538392  0.03740912  0.44956952     0.07550
C275        C  0.32016535  0.08724603  0.47368761    -0.02240
C276        C  0.31895235  0.09139612  0.52897175    -0.02240
C277        C  0.32328931  0.04578990  0.55999766     0.07690
C278        C  0.32436297  0.99557306  0.53574831    -0.02440
Br279      Br  0.33075282  0.93259655  0.57781371    -0.00990
Br280      Br  0.33060837  0.92330914  0.44689426    -0.01060
Br281      Br  0.31508137  0.15951819  0.56258268    -0.01020
Br282      Br  0.31928269  0.15003575  0.43092496    -0.01000
C283        C  0.20522343  0.98452239  0.78952682    -0.02130
C284        C  0.20281511  0.02531875  0.82739279     0.07550
C285        C  0.24055733  0.06620508  0.82548818    -0.02240
C286        C  0.28129861  0.06550152  0.78748936    -0.02240
C287        C  0.28549435  0.02298858  0.75174901     0.07690
C288        C  0.24754936  0.98218499  0.75329976    -0.02440
Br289      Br  0.25348491  0.92298507  0.70572346    -0.00990
Br290      Br  0.14889782  0.93394347  0.78408618    -0.01060
Br291      Br  0.32805429  0.12567208  0.78128500    -0.01020
Br292      Br  0.23218147  0.12702718  0.86990636    -0.01000
C293        C  0.70929645  0.95600017  0.47340541    -0.02130
C294        C  0.71423213  0.00524118  0.44796420     0.07550
C295        C  0.72814171  0.05034710  0.47701340    -0.02240
C296        C  0.73267106  0.04719168  0.53209944    -0.02240
C297        C  0.72461338  0.99841836  0.55829187     0.07690
C298        C  0.71467666  0.95257660  0.52849967    -0.02440
Br299      Br  0.70478964  0.88596360  0.56394342    -0.00990
Br300      Br  0.69270417  0.89380085  0.43285428    -0.01060
Br301      Br  0.74245416  0.11153307  0.57167453    -0.01020
Br302      Br  0.73627980  0.11743964  0.44162486    -0.01000
C303        C  0.55609766  0.04560586  0.63168969    -0.02130
C304        C  0.58496176  0.04316578  0.67889487     0.07550
C305        C  0.55544474  0.04700455  0.72697207    -0.02240
C306        C  0.49996995  0.05326520  0.72562540    -0.02240
C307        C  0.47227614  0.04221357  0.67844631     0.07690
C308        C  0.50279882  0.03309403  0.63230304    -0.02440
Br309      Br  0.47699903  0.99452806  0.57180769    -0.00990
Br310      Br  0.58613147  0.07188643  0.56609134    -0.01060
Br311      Br  0.46484512  0.08084676  0.78760931    -0.01020
Br312      Br  0.58693437  0.04196556  0.79534018    -0.01000
C313        C  0.86465926  0.05481599  0.77425572    -0.02130
C314        C  0.85166353  0.03673212  0.82622219     0.07550
C315        C  0.79829280  0.02247731  0.83683202    -0.02240
C316        C  0.76306626  0.01615946  0.79510988    -0.02240
C317        C  0.77464427  0.03789078  0.74514756     0.07690
C318        C  0.82495536  0.06032350  0.73627751    -0.02440
Br319      Br  0.83953746  0.10100588  0.67332129    -0.00990
Br320      Br  0.93580802  0.07250376  0.75187253    -0.01060
Br321      Br  0.70302020  0.97005630  0.80554434    -0.01020
Br322      Br  0.76891696  0.01427835  0.90718392    -0.01000
C323        C  0.29124805  0.81977859  0.00590073    -0.02130
C324        C  0.27948123  0.76789414  0.98852422     0.07550
C325        C  0.22711199  0.75733878  0.97287458    -0.02240
C326        C  0.18722233  0.79389820  0.98434390    -0.02240
C327        C  0.20067957  0.84785424  0.99339833     0.07690
C328        C  0.25493547  0.86032456  0.99824535    -0.02440
Br329      Br  0.28400607  0.93019443  0.98656305    -0.00990
Br330      Br  0.35223277  0.83674112  0.04747507    -0.01060
Br331      Br  0.11605399  0.76597395  0.98842580    -0.01020
Br332      Br  0.20894021  0.69789998  0.92851844    -0.01000
C333        C  0.33619049  0.48914855  0.02402105    -0.02130
C334        C  0.32639764  0.46625148  0.97414612     0.07550
C335        C  0.31445501  0.49851954  0.93109477    -0.02240
C336        C  0.31667453  0.55374669  0.93662177    -0.02240
C337        C  0.33077169  0.57652534  0.98534226     0.07690
C338        C  0.33881565  0.54423845  0.02941754    -0.02440
Br339      Br  0.35737365  0.57572482  0.09606174    -0.00990
Br340      Br  0.35029893  0.44514931  0.08429399    -0.01060
Br341      Br  0.30502338  0.59807194  0.87628514    -0.01020
Br342      Br  0.29777913  0.46664044  0.86431422    -0.01000
C343        C  0.23450471  0.28816701  0.03979851    -0.02130
C344        C  0.28192196  0.27894937  0.01170879     0.07550
C345        C  0.28957944  0.22881360  0.98908397    -0.02240
C346        C  0.25432608  0.18758604  0.00023443    -0.02240
C347        C  0.20237232  0.19939439  0.01754111     0.07690
C348        C  0.19270581  0.25132462  0.03675165    -0.02440
Br349      Br  0.12357264  0.27494010  0.05830604    -0.00990
Br350      Br  0.22693432  0.34976710  0.08420521    -0.01060
Br351      Br  0.28193968  0.11677238  0.99441946    -0.01020
Br352      Br  0.34033614  0.21784426  0.93321033    -0.01000
C353        C  0.55619863  0.39027749  0.97302082    -0.02130
C354        C  0.58375975  0.34435792  0.98665281     0.07550
C355        C  0.55369869  0.29761200  0.99451452    -0.02240
C356        C  0.49848668  0.29801362  0.98728651    -0.02240
C357        C  0.47104845  0.34687516  0.98542534     0.07690
C358        C  0.50252089  0.39346450  0.98385540    -0.02440
Br359      Br  0.47865808  0.46153519  0.00885670    -0.00990
Br360      Br  0.58997398  0.44907306  0.93716466    -0.01060
Br361      Br  0.46474931  0.23068023  0.97681458    -0.01020
Br362      Br  0.58504213  0.23306714  0.01773864    -0.01000
C363        C  0.76308691  0.22930687  0.01426106    -0.02130
C364        C  0.77349502  0.27915585  0.99189451     0.07550
C365        C  0.82243843  0.28739826  0.96592330    -0.02240
C366        C  0.86203826  0.24874813  0.96863022    -0.02240
C367        C  0.84988720  0.19756715  0.98871034     0.07690
C368        C  0.79723760  0.18728421  0.00486575    -0.02440
Br369      Br  0.76656887  0.11735371  0.00774019    -0.00990
Br370      Br  0.70813734  0.21942943  0.06633384    -0.01060
Br371      Br  0.93134692  0.26729336  0.94191086    -0.01020
Br372      Br  0.83534595  0.34999529  0.92434964    -0.01000
C373        C  0.49139948  0.72187708  0.03093258    -0.02130
C374        C  0.46939163  0.71361444  0.98075836     0.07550
C375        C  0.50236400  0.70938991  0.93602788    -0.02240
C376        C  0.55728448  0.70972379  0.94186741    -0.02240
C377        C  0.57920414  0.71436063  0.99248395     0.07690
C378        C  0.54629551  0.72236768  0.03673242    -0.02440
Br379      Br  0.57661963  0.72984275  0.10568378    -0.00990
Br380      Br  0.44626950  0.72760223  0.09243004    -0.01060
Br381      Br  0.60257571  0.69991191  0.88111538    -0.01020
Br382      Br  0.47188968  0.69958653  0.86747957    -0.01000
C383        C  0.73166001  0.49245520  0.97482880    -0.02130
C384        C  0.72351029  0.46770363  0.02430580     0.07550
C385        C  0.71414782  0.49875523  0.06949107    -0.02240
C386        C  0.70969468  0.55385100  0.06477780    -0.02240
C387        C  0.71500062  0.57795882  0.01489975     0.07690
C388        C  0.72801127  0.54751543  0.97035193    -0.02440
Br389      Br  0.73599483  0.58103037  0.90228015    -0.00990
Br390      Br  0.74043605  0.45101714  0.91148363    -0.01060
Br391      Br  0.69355258  0.59622315  0.12601855    -0.01020
Br392      Br  0.70354662  0.46506508  0.13694967    -0.01000
C393        C  0.81324098  0.76425344  0.03244307    -0.02130
C394        C  0.77078154  0.76672960  0.99710020     0.07550
C395        C  0.77257112  0.80476174  0.95622892    -0.02240
C396        C  0.81333537  0.84283057  0.95457130    -0.02240
C397        C  0.85427386  0.84131117  0.99135152     0.07690
C398        C  0.85714272  0.79742305  0.02532748    -0.02440
Br399      Br  0.92313910  0.77526739  0.05423362    -0.00990
Br400      Br  0.81104802  0.71857931  0.09352330    -0.01060
Br401      Br  0.81890351  0.89043414  0.89587576    -0.01020
Br402      Br  0.72218945  0.80287291  0.89988319    -0.01000
loop_ 
_geom_bond_atom_site_label_1 
_geom_bond_atom_site_label_2 
_geom_bond_distance 
_geom_bond_site_symmetry_2 
_ccdc_geom_bond_type 
C1            C2   1.408   1_556  A
C1            C6   1.411       .  A
C1          C394   1.492       .  S
C2            C3   1.397       .  A
C2            H7   1.084       .  S
C3            C4   1.397       .  A
C3          C387   1.475       .  S
C4            C5   1.399   1_554  A
C4            H8   1.085       .  S
C5            C6   1.404       .  A
C5          C377   1.477       .  S
C6            H9   1.083       .  S
C10          C11   1.408   1_556  A
C10          C15   1.420       .  A
C10         C364   1.496       .  S
C11          C12   1.397       .  A
C11          H16   1.082       .  S
C12          C13   1.391       .  A
C12         C384   1.479       .  S
C13          C14   1.404   1_554  A
C13          H17   1.084       .  S
C14          C15   1.414       .  A
C14         C354   1.508       .  S
C15          H18   1.081       .  S
C19          C20   1.419       .  A
C19          C24   1.403   1_554  A
C19         C344   1.493       .  S
C20          C21   1.420   1_554  A
C20          H25   1.078       .  S
C21          C22   1.409       .  A
C21         C357   1.520       .  S
C22          C23   1.394       .  A
C22          H26   1.080       .  S
C23          C24   1.389       .  A
C23         C334   1.476       .  S
C24          H27   1.082       .  S
C28          C29   1.415       .  A
C28          C33   1.414       .  A
C28         C324   1.507       .  S
C29          C30   1.401       .  A
C29          H34   1.080       .  S
C30          C31   1.394       .  A
C30         C374   1.477       .  S
C31          C32   1.394       .  A
C31          H35   1.085       .  S
C32          C33   1.400       .  A
C32         C337   1.475       .  S
C33          H36   1.081   1_556  S
C37          C38   1.420       .  A
C37          C42   1.408       .  A
C37         C317   1.496       .  S
C38          C39   1.417       .  A
C38          H43   1.077       .  S
C39          C40   1.408       .  A
C39         C304   1.518       .  S
C40          C41   1.391   1_545  A
C40          H44   1.082   1_545  S
C41          C42   1.395   1_565  A
C41         C297   1.482       .  S
C42          H45   1.082       .  S
C46          C47   1.413       .  A
C46          C51   1.401       .  A
C46         C287   1.481       .  S
C47          C48   1.416       .  A
C47          H52   1.080       .  S
C48          C49   1.407       .  A
C48         C307   1.510       .  S
C49          C50   1.395       .  A
C49          H53   1.082       .  S
C50          C51   1.391       .  A
C50         C277   1.474       .  S
C51          H54   1.084       .  S
C55          C56   1.409       .  A
C55          C60   1.412       .  A
C55         C267   1.494       .  S
C56          C57   1.398       .  A
C56          H61   1.083       .  S
C57          C58   1.396       .  A
C57         C274   1.472       .  S
C58          C59   1.396       .  A
C58          H62   1.085       .  S
C59          C60   1.403       .  A
C59         C254   1.477       .  S
C60          H63   1.083       .  S
C64          C65   1.407       .  A
C64          C69   1.410       .  A
C64         C247   1.490       .  S
C65          C66   1.398       .  A
C65          H70   1.084       .  S
C66          C67   1.398       .  A
C66         C294   1.477       .  S
C67          C68   1.401       .  A
C67          H71   1.085       .  S
C68          C69   1.404       .  A
C68         C257   1.479       .  S
C69          H72   1.083       .  S
C73          C74   1.407       .  A
C73          C78   1.407       .  A
C73         C237   1.479       .  S
C74          C75   1.402       .  A
C74          H79   1.084       .  S
C75          C76   1.399       .  A
C75         C224   1.480       .  S
C76          C77   1.398       .  A
C76          H80   1.085       .  S
C77          C78   1.402       .  A
C77         C214   1.477       .  S
C78          H81   1.084       .  S
C82          C83   1.407       .  A
C82          C87   1.408       .  A
C82         C204   1.482       .  S
C83          C84   1.400       .  A
C83          H88   1.084       .  S
C84          C85   1.398       .  A
C84         C194   1.475       .  S
C85          C86   1.400       .  A
C85          H89   1.085       .  S
C86          C87   1.403       .  A
C86         C227   1.481       .  S
C87          H90   1.084       .  S
C91          C92   1.405       .  A
C91          C96   1.406       .  A
C91         C184   1.476       .  S
C92          C93   1.400       .  A
C92          H97   1.084       .  S
C93          C94   1.400       .  A
C93         C217   1.477       .  S
C94          C95   1.400       .  A
C94          H98   1.085       .  S
C95          C96   1.402       .  A
C95         C174   1.479       .  S
C96          H99   1.084       .  S
C100        C101   1.405       .  A
C100        C105   1.406       .  A
C100        C164   1.476       .  S
C101        C102   1.401       .  A
C101        H106   1.084       .  S
C102        C103   1.399       .  A
C102        C197   1.475       .  S
C103        C104   1.399       .  A
C103        H107   1.085       .  S
C104        C105   1.402       .  A
C104        C177   1.477       .  S
C105        H108   1.084       .  S
O109       Zr145   2.416   1_656  S
O109        C120   1.286       .  A
O110       Zr144   2.446   1_655  S
O110        C121   1.293   1_554  A
O111       Zr117   2.469       .  S
O111        C122   1.299       .  A
O112       Zr117   2.443   1_556  S
O112        C123   1.291       .  A
O113       Zr147   2.444   1_655  S
O113        C123   1.291       .  A
O114       Zr146   2.424   1_655  S
O114        C122   1.288       .  A
O115       Zr117   2.439   1_556  S
O115        C121   1.291       .  A
O116       Zr117   2.477   1_566  S
O116        C120   1.300       .  A
Zr117       O118   2.342   1_554  S
Zr117       O119   2.339   1_545  S
Zr117       O127   2.343   1_544  S
Zr117       O125   2.354       .  S
O118       Zr144   2.334   1_656  S
O118       Zr147   2.329   1_655  S
O119       Zr145   2.344   1_655  S
O119       Zr146   2.345   1_665  S
C120        C397   1.489       .  S
C121        C367   1.503       .  S
C122        C244   1.489       .  S
C123        C314   1.510       .  S
H124        O125   0.966       .  S
O125       Zr144   2.350   1_655  S
O125       Zr146   2.346   1_655  S
H126        O127   0.966       .  S
O127       Zr145   2.343   1_656  S
O127       Zr147   2.343   1_665  S
O128       Zr144   2.450       .  S
O128        C151   1.292       .  A
O129       Zr145   2.430   1_556  S
O129        C152   1.287       .  A
O130       Zr146   2.445       .  S
O130        C153   1.292       .  A
O131       Zr147   2.448       .  S
O131        C154   1.293       .  A
O132       Zr147   2.447   1_565  S
O132        C155   1.294       .  A
O133       Zr146   2.437   1_565  S
O133        C156   1.291       .  A
O134       Zr148   2.456       .  S
O134        C157   1.296       .  A
O135       Zr148   2.453   1_556  S
O135        C158   1.296       .  A
O136       Zr146   2.430       .  S
O136        C157   1.289       .  A
O137       Zr147   2.438       .  S
O137        C158   1.292       .  A
O138       Zr144   2.438       .  S
O138        C153   1.291       .  A
O139       Zr145   2.447       .  S
O139        C156   1.293       .  A
O140       Zr145   2.437   1_556  S
O140        C155   1.291       .  A
O141       Zr144   2.436   1_556  S
O141        C154   1.291       .  A
O142       Zr148   2.426       .  S
O142        C151   1.287       .  A
O143       Zr148   2.442   1_565  S
O143        C152   1.291   1_554  A
Zr144       O150   2.333       .  S
Zr144       O162   2.346   1_554  S
Zr145       O149   2.333   1_554  S
Zr145       O160   2.339       .  S
Zr146       O150   2.331       .  S
Zr146       O160   2.345   1_545  S
Zr147       O149   2.340   1_545  S
Zr147       O162   2.351       .  S
Zr148       O149   2.337   1_544  S
Zr148       O150   2.334       .  S
Zr148       O162   2.351   1_554  S
Zr148       O160   2.338   1_545  S
C151        C347   1.502       .  S
C152        C327   1.507       .  S
C153        C187   1.475       .  S
C154        C234   1.476       .  S
C155        C207   1.478       .  S
C156        C167   1.473       .  S
C157        C264   1.492       .  S
C158        C284   1.483       .  S
H159        O160   0.966       .  S
H161        O162   0.966       .  S
C163        C164   1.408   1_655  A
C163        C168   1.407       .  A
C163       Br170   1.930       .  S
C164        C165   1.408       .  A
C165        C166   1.407       .  A
C165       Br172   1.929       .  S
C166        C167   1.409       .  A
C166       Br171   1.930       .  S
C167        C168   1.410   1_455  A
C168       Br169   1.928       .  S
C173        C174   1.409       .  A
C173        C178   1.409       .  A
C173       Br180   1.928       .  S
C174        C175   1.409   1_455  A
C175        C176   1.406       .  A
C175       Br182   1.929       .  S
C176        C177   1.408   1_655  A
C176       Br181   1.930       .  S
C177        C178   1.409       .  A
C178       Br179   1.929       .  S
C183        C184   1.407   1_655  A
C183        C188   1.404       .  A
C183       Br190   1.931       .  S
C184        C185   1.409       .  A
C185        C186   1.409       .  A
C185       Br192   1.928       .  S
C186        C187   1.411       .  A
C186       Br191   1.930       .  S
C187        C188   1.407   1_455  A
C188       Br189   1.920       .  S
C193        C194   1.408       .  A
C193        C198   1.407       .  A
C193       Br200   1.929       .  S
C194        C195   1.408   1_455  A
C195        C196   1.406       .  A
C195       Br202   1.929       .  S
C196        C197   1.408   1_655  A
C196       Br201   1.929       .  S
C197        C198   1.408       .  A
C198       Br199   1.929       .  S
C203        C204   1.410       .  A
C203        C208   1.407       .  A
C203       Br210   1.932       .  S
C204        C205   1.411   1_455  A
C205        C206   1.408       .  A
C205       Br212   1.931       .  S
C206        C207   1.410   1_655  A
C206       Br211   1.929       .  S
C207        C208   1.411       .  A
C208       Br209   1.926       .  S
C213        C214   1.409       .  A
C213        C218   1.408       .  A
C213       Br220   1.929       .  S
C214        C215   1.408   1_455  A
C215        C216   1.406       .  A
C215       Br222   1.929       .  S
C216        C217   1.409   1_655  A
C216       Br221   1.929       .  S
C217        C218   1.408       .  A
C218       Br219   1.929       .  S
C223        C224   1.410       .  A
C223        C228   1.405       .  A
C223       Br230   1.931       .  S
C224        C225   1.410   1_455  A
C225        C226   1.410       .  A
C225       Br232   1.929       .  S
C226        C227   1.410   1_655  A
C226       Br231   1.929       .  S
C227        C228   1.410       .  A
C228       Br229   1.931       .  S
C233        C234   1.410   1_655  A
C233        C238   1.409       .  A
C233       Br240   1.930       .  S
C234        C235   1.408       .  A
C235        C236   1.406       .  A
C235       Br242   1.924       .  S
C236        C237   1.409       .  A
C236       Br241   1.931       .  S
C237        C238   1.410   1_455  A
C238       Br239   1.929       .  S
C243        C244   1.413   1_565  A
C243        C248   1.405       .  A
C243       Br250   1.927       .  S
C244        C245   1.410       .  A
C245        C246   1.409       .  A
C245       Br252   1.919       .  S
C246        C247   1.414       .  A
C246       Br251   1.931       .  S
C247        C248   1.414   1_545  A
C248       Br249   1.935       .  S
C253        C254   1.410   1_565  A
C253        C258   1.406       .  A
C253       Br260   1.930       .  S
C254        C255   1.407       .  A
C255        C256   1.409       .  A
C255       Br262   1.929       .  S
C256        C257   1.412       .  A
C256       Br261   1.927       .  S
C257        C258   1.408   1_545  A
C258       Br259   1.929       .  S
C263        C264   1.413   1_565  A
C263        C268   1.409       .  A
C263       Br270   1.925       .  S
C264        C265   1.417       .  A
C265        C266   1.408       .  A
C265       Br272   1.933       .  S
C266        C267   1.416       .  A
C266       Br271   1.936       .  S
C267        C268   1.416   1_545  A
C268       Br269   1.936       .  S
C273        C274   1.405   1_565  A
C273        C278   1.405       .  A
C273       Br280   1.930       .  S
C274        C275   1.409       .  A
C275        C276   1.406       .  A
C275       Br282   1.928       .  S
C276        C277   1.405       .  A
C276       Br281   1.928       .  S
C277        C278   1.413   1_545  A
C278       Br279   1.931       .  S
C283        C284   1.411   1_565  A
C283        C288   1.408       .  A
C283       Br290   1.921       .  S
C284        C285   1.408       .  A
C285        C286   1.406       .  A
C285       Br292   1.920       .  S
C286        C287   1.411       .  A
C286       Br291   1.932       .  S
C287        C288   1.409   1_545  A
C288       Br289   1.930       .  S
C293        C294   1.410   1_565  A
C293        C298   1.408       .  A
C293       Br300   1.928       .  S
C294        C295   1.405       .  A
C295        C296   1.406       .  A
C295       Br302   1.933       .  S
C296        C297   1.417   1_545  A
C296       Br301   1.930       .  S
C297        C298   1.408       .  A
C298       Br299   1.927       .  S
C303        C304   1.415       .  A
C303        C308   1.390       .  A
C303       Br310   1.938       .  S
C304        C305   1.427       .  A
C305        C306   1.423       .  A
C305       Br312   1.925       .  S
C306        C307   1.423       .  A
C306       Br311   1.931       .  S
C307        C308   1.415       .  A
C308       Br309   1.937   1_545  S
C313        C314   1.429       .  A
C313        C318   1.413       .  A
C313       Br320   1.939       .  S
C314        C315   1.425       .  A
C315        C316   1.404       .  A
C315       Br322   1.936       .  S
C316        C317   1.409       .  A
C316       Br321   1.932   1_545  S
C317        C318   1.412       .  A
C318       Br319   1.932       .  S
C323        C324   1.418   1_554  A
C323        C328   1.404   1_554  A
C323       Br330   1.933       .  S
C324        C325   1.419       .  A
C325        C326   1.408       .  A
C325       Br332   1.936       .  S
C326        C327   1.426       .  A
C326       Br331   1.941       .  S
C327        C328   1.421       .  A
C328       Br329   1.936       .  S
C333        C334   1.415   1_554  A
C333        C338   1.404       .  A
C333       Br340   1.933       .  S
C334        C335   1.403       .  A
C335        C336   1.408       .  A
C335       Br342   1.926       .  S
C336        C337   1.412       .  A
C336       Br341   1.927       .  S
C337        C338   1.405   1_556  A
C338       Br339   1.931       .  S
C343        C344   1.414       .  A
C343        C348   1.413       .  A
C343       Br350   1.933       .  S
C344        C345   1.408   1_554  A
C345        C346   1.398   1_556  A
C345       Br352   1.926       .  S
C346        C347   1.422       .  A
C346       Br351   1.938   1_554  S
C347        C348   1.425       .  A
C348       Br349   1.935       .  S
C353        C354   1.410       .  A
C353        C358   1.393       .  A
C353       Br360   1.936       .  S
C354        C355   1.418       .  A
C355        C356   1.420       .  A
C355       Br362   1.923   1_556  S
C356        C357   1.428       .  A
C356       Br361   1.924       .  S
C357        C358   1.422       .  A
C358       Br359   1.937   1_556  S
C363        C364   1.408   1_554  A
C363        C368   1.399       .  A
C363       Br370   1.925       .  S
C364        C365   1.415       .  A
C365        C366   1.414       .  A
C365       Br372   1.930       .  S
C366        C367   1.425       .  A
C366       Br371   1.935       .  S
C367        C368   1.418   1_556  A
C368       Br369   1.932       .  S
C373        C374   1.412   1_554  A
C373        C378   1.407       .  A
C373       Br380   1.930       .  S
C374        C375   1.406       .  A
C375        C376   1.407       .  A
C375       Br382   1.928       .  S
C376        C377   1.411       .  A
C376       Br381   1.928       .  S
C377        C378   1.406   1_556  A
C378       Br379   1.929       .  S
C383        C384   1.416   1_556  A
C383        C388   1.405       .  A
C383       Br390   1.929       .  S
C384        C385   1.408       .  A
C385        C386   1.408       .  A
C385       Br392   1.928       .  S
C386        C387   1.410       .  A
C386       Br391   1.929       .  S
C387        C388   1.405   1_554  A
C388       Br389   1.932       .  S
C393        C394   1.415   1_554  A
C393        C398   1.403       .  A
C393       Br400   1.935       .  S
C394        C395   1.417       .  A
C395        C396   1.411       .  A
C395       Br402   1.933       .  S
C396        C397   1.409       .  A
C396       Br401   1.920       .  S
C397        C398   1.411   1_556  A
C398       Br399   1.930       .  S
