geometry optimzed in LAMMPS
_audit_creation_date              2020-12-01 
_audit_creation_method            'lammps2cif' 
_symmetry_space_group_name_H-M    'P1' 
_symmetry_Int_Tables_number       1 
_symmetry_cell_setting            triclinic 
loop_ 
_symmetry_equiv_pos_as_xyz 
  x,y,z 
_cell_length_a                    33.20960918 
_cell_length_b                    33.304712104777884 
_cell_length_c                    43.41631578512805 
_cell_angle_alpha                 88.50572188826428 
_cell_angle_beta                  102.11675617076574 
_cell_angle_gamma                 97.63726909855608 
loop_ 
_atom_site_label 
_atom_site_type_symbol 
_atom_site_fract_x 
_atom_site_fract_y 
_atom_site_fract_z 
_atom_site_charge 
N1          N  0.50724002  0.30446441  0.94499983    -0.01900
C2          C  0.49887621  0.27880753  0.91988255     0.00700
C3          C  0.45807409  0.26071817  0.91471246    -0.22200
C4          C  0.44061597  0.27516529  0.93739270    -0.22400
C5          C  0.47120684  0.30183114  0.95557787     0.00600
H6          H  0.44291349  0.23859718  0.89673860     0.14400
H7          H  0.40873423  0.26779292  0.93991573     0.14400
N8          N  0.38267857  0.49051511  0.09267927    -0.01900
C9          C  0.37160259  0.49313902  0.12075665     0.00700
C10         C  0.38250660  0.53238276  0.13221014    -0.22200
C11         C  0.40116186  0.55441359  0.11051207    -0.22400
C12         C  0.40078055  0.52785694  0.08658294     0.00600
H13         H  0.37484531  0.54440421  0.15287255     0.14400
H14         H  0.41180255  0.58659352  0.11130001     0.14400
N15         N  0.50577089  0.66808080  0.88224916    -0.01900
C16         C  0.49838624  0.69057733  0.85560112     0.00700
C17         C  0.45598802  0.68890032  0.84429342    -0.22200
C18         C  0.43682645  0.66527848  0.86486108    -0.22400
C19         C  0.46804113  0.65296348  0.88802142     0.00600
H20         H  0.44058353  0.70585978  0.82473195     0.14400
H21         H  0.40373313  0.65930386  0.86383069     0.14400
N22         N  0.75513218  0.51128466  0.01635350    -0.01900
C23         C  0.79561233  0.50920822  0.02972198     0.00700
C24         C  0.81936454  0.54598455  0.02707654    -0.22200
C25         C  0.79283544  0.57156048  0.01147922    -0.22400
C26         C  0.75352612  0.54973069  0.00510003     0.00600
H27         H  0.85228576  0.55379656  0.03643735     0.14400
H28         H  0.80147818  0.60273128  0.00529288     0.14400
N29         N  0.24814536  0.92658018  0.52763345    -0.01900
C30         C  0.28839855  0.93059913  0.54333496     0.00700
C31         C  0.30615927  0.89629259  0.53954897    -0.22200
C32         C  0.27608733  0.87026962  0.52072951    -0.22400
C33         C  0.24094155  0.88958045  0.51359579     0.00600
H34         H  0.33755547  0.89067375  0.54973119     0.14400
H35         H  0.27931184  0.84024841  0.51341704     0.14400
N36         N  0.03156668  0.10999797  0.46076445    -0.01900
C37         C  0.02638264  0.14270086  0.44172892     0.00700
C38         C  0.98979519  0.15732236  0.44321101    -0.22200
C39         C  0.97195547  0.13319415  0.46409643    -0.22400
C40         C  0.99825988  0.10464594  0.47461860     0.00600
H41         H  0.97741732  0.18279300  0.43035972     0.14400
H42         H  0.94287663  0.13602302  0.47083868     0.14400
N43         N  0.86010716  0.89791688  0.60042058    -0.01900
C44         C  0.84196848  0.89790759  0.62569170     0.00700
C45         C  0.82708230  0.85839767  0.63237839    -0.22200
C46         C  0.83655884  0.83366984  0.61074079    -0.22400
C47         C  0.85710792  0.85871481  0.59164154     0.00600
H48         H  0.80945377  0.84860975  0.65015748     0.14400
H49         H  0.82881338  0.80109968  0.60887191     0.14400
N50         N  0.97802469  0.72148326  0.40710867    -0.01900
C51         C  0.96921293  0.69703123  0.38142846     0.00700
C52         C  0.92675569  0.68673127  0.37197011    -0.22200
C53         C  0.90884346  0.70524967  0.39258911    -0.22400
C54         C  0.94092769  0.72640472  0.41395057     0.03400
H55         H  0.91068854  0.66593334  0.35329288     0.14400
H56         H  0.87598851  0.70272976  0.39249075     0.14400
In57       In  0.59594600  0.03342093  0.74865122     1.36900
C58         C  0.66307720  0.03619442  0.72318544     0.79200
O59         O  0.57830615  0.98986396  0.78551712    -0.59300
O60         O  0.60791038  0.96795714  0.75194017    -0.50200
C61         C  0.60036126  0.09523781  0.78804635     0.71800
O62         O  0.60582088  0.05985511  0.79720878    -0.45000
C63         C  0.52238883  0.03175137  0.70820228     0.76600
O64         O  0.66583413  0.04467694  0.75180385    -0.56900
O65         O  0.52916564  0.00803603  0.73115018    -0.47000
O66         O  0.62630867  0.02798671  0.70794754    -0.53300
C67         C  0.59167549  0.96004499  0.77556577     0.86700
O68         O  0.59524982  0.09973044  0.75862899    -0.55200
O69         O  0.55319887  0.05740903  0.70620564    -0.58500
In70       In  0.06366885  0.40822043  0.24571978     1.36900
C71         C  0.06185707  0.47281357  0.28053342     0.79200
O72         O  0.00042538  0.42713611  0.22781327    -0.59300
O73         O  0.02145438  0.38767402  0.19922067    -0.50200
C74         C  0.12829174  0.41797026  0.21718520     0.71800
O75         O  0.12813175  0.43598454  0.24232195    -0.45000
C76         C  0.07043442  0.34121814  0.28113311     0.76600
O77         O  0.07271654  0.47551096  0.25427442    -0.56900
O78         O  0.03711752  0.34824508  0.26318417    -0.47000
O79         O  0.05290042  0.43685302  0.28930875    -0.53300
C80         C  0.99304183  0.40789790  0.20228024     0.86700
O81         O  0.09488209  0.39566364  0.20624676    -0.55200
O82         O  0.10047181  0.36842991  0.28080345    -0.58500
C83         C  0.01424902  0.64244757  0.32490055    -0.26600
C84         C  0.03347571  0.61348545  0.34484242     0.07000
C85         C  0.03841394  0.61786047  0.37767448     0.26600
C86         C  0.02132670  0.64861614  0.38994886    -0.11100
C87         C  0.99883161  0.67510910  0.36970001    -0.25000
C88         C  0.99678543  0.67279834  0.33715997     0.37400
C89         C  0.04469811  0.57727220  0.33082691     0.07000
F90         F  0.05809205  0.59135280  0.39777914    -0.18800
H91         H  0.02277581  0.64966388  0.41508378     0.16800
F92         F  0.97536635  0.69820826  0.31708960    -0.22500
H93         H  0.01024072  0.63992775  0.29958374     0.18600
C94         C  0.02974779  0.53785842  0.33935420     0.26600
C95         C  0.03680826  0.50404452  0.32369189    -0.11100
C96         C  0.05820631  0.50873763  0.29885006    -0.25100
C97         C  0.07367154  0.54811987  0.29064848     0.37500
C98         C  0.06699540  0.58190433  0.30653790    -0.26700
F99         F  0.00608776  0.53205388  0.36147054    -0.18800
H100        H  0.02406926  0.47417043  0.33022883     0.16800
F101        F  0.09469372  0.55414269  0.26693615    -0.22500
H102        H  0.07861908  0.61190536  0.29944821     0.18700
C103        C  0.92731727  0.83385132  0.53818053    -0.26600
C104        C  0.89838536  0.81257393  0.51382920     0.07000
C105        C  0.85583751  0.80882742  0.51449950     0.26600
C106        C  0.84280901  0.82423479  0.53980882    -0.11100
C107        C  0.87174762  0.84437456  0.56453165    -0.25000
C108        C  0.91411703  0.84971482  0.56341343     0.37400
C109        C  0.91243963  0.79093334  0.48939540     0.07000
F110        F  0.82686561  0.78984265  0.49076559    -0.18800
H111        H  0.81000227  0.82038801  0.54018749     0.16800
F112        F  0.94279867  0.86843709  0.58741708    -0.22500
H113        H  0.96022043  0.83670823  0.53830259     0.18600
C114        C  0.93932944  0.81058210  0.47094623     0.26600
C115        C  0.95015900  0.78927502  0.44703752    -0.11100
C116        C  0.93428793  0.74827995  0.44134209    -0.25100
C117        C  0.90856895  0.72855959  0.46050103     0.37500
C118        C  0.89802468  0.74963063  0.48429960    -0.26700
F119        F  0.95347603  0.85063041  0.47504668    -0.18800
H120        H  0.96956619  0.80513663  0.43224335     0.16800
F121        F  0.89333956  0.68876839  0.45606208    -0.22500
H122        H  0.87810139  0.73364993  0.49868948     0.18700
C123        C  0.77163039  0.02359954  0.71284620    -0.26600
C124        C  0.76345412  0.01140579  0.68104682     0.07000
C125        C  0.72335287  0.01320288  0.66267767     0.26600
C126        C  0.69193156  0.02433927  0.67628242    -0.11100
C127        C  0.69918673  0.03324684  0.70856526    -0.25000
C128        C  0.73985449  0.03431933  0.72657740     0.37400
C129        C  0.79368436  0.99003267  0.66878797     0.07000
F130        F  0.71305137  0.00028078  0.63231533    -0.18800
H131        H  0.66100301  0.02341496  0.66178011     0.16800
F132        F  0.74840684  0.04308482  0.75781507    -0.22500
H133        H  0.80219436  0.02271993  0.72753605     0.18600
C134        C  0.79962313  0.99530817  0.63762044     0.26600
C135        C  0.81838799  0.96696981  0.62398014    -0.11100
C136        C  0.83280353  0.93375428  0.64150593    -0.25100
C137        C  0.83170651  0.93170135  0.67375167     0.37500
C138        C  0.81207250  0.95928255  0.68708678    -0.26700
F139        F  0.78545482  0.02665181  0.61985218    -0.18800
H140        H  0.81887537  0.96962207  0.59917797     0.16800
F141        F  0.84735474  0.90139031  0.69202262    -0.22500
H142        H  0.80864990  0.95461725  0.71123033     0.18700
C143        C  0.88980196  0.96597288  0.53710928    -0.26600
C144        C  0.92760251  0.98701691  0.55301654     0.07000
C145        C  0.94026754  0.98166432  0.58574553     0.26600
C146        C  0.91646108  0.95407766  0.60180005    -0.11100
C147        C  0.87985313  0.93168362  0.58546506    -0.25000
C148        C  0.86602978  0.93866014  0.55318668     0.37400
C149        C  0.95256563  0.01544969  0.53532072     0.07000
F150        F  0.97651400  0.00169596  0.60187419    -0.18800
H151        H  0.92752138  0.94863497  0.62664359     0.16800
F152        F  0.82993282  0.91822625  0.53717522    -0.22500
H153        H  0.87875796  0.97062294  0.51213682     0.18600
C154        C  0.96206749  0.00355352  0.50701815     0.26600
C155        C  0.98056143  0.03224785  0.48833533    -0.11100
C156        C  0.98949000  0.07303016  0.49755832    -0.25100
C157        C  0.98214640  0.08441853  0.52658978     0.37500
C158        C  0.96404727  0.05580344  0.54536934    -0.26700
F159        F  0.95207619  0.96454485  0.49692195    -0.18800
H160        H  0.98536836  0.02311837  0.46576461     0.16800
F161        F  0.99045045  0.12376507  0.53592442    -0.22500
H162        H  0.95681328  0.06568321  0.56692378     0.18700
C163        C  0.05868320  0.17169893  0.36621823    -0.26600
C164        C  0.07578748  0.21228301  0.37265903     0.07000
C165        C  0.08480385  0.22608302  0.40404219     0.26600
C166        C  0.07369958  0.20064704  0.42789734    -0.11100
C167        C  0.05349878  0.16120306  0.42093791    -0.25000
C168        C  0.04753117  0.14633376  0.39013709     0.37400
C169        C  0.07715390  0.24162294  0.34639763     0.07000
F170        F  0.09975671  0.26545188  0.41108390    -0.18800
H171        H  0.07713916  0.21306022  0.45126867     0.16800
F172        F  0.02635502  0.10902653  0.38243289    -0.22500
H173        H  0.05118205  0.16054737  0.34220580     0.18600
C174        C  0.11270304  0.26935704  0.34541986     0.26600
C175        C  0.11088907  0.30074139  0.32321949    -0.11100
C176        C  0.07361760  0.30504455  0.30170014    -0.25100
C177        C  0.03885816  0.27576587  0.30148864     0.37500
C178        C  0.04072244  0.24449303  0.32363336    -0.26700
F179        F  0.14886719  0.26658644  0.36632444    -0.18800
H180        H  0.13831283  0.32246977  0.32356558     0.16800
F181        F  0.00249999  0.27811913  0.28070066    -0.22500
H182        H  0.01291741  0.22352782  0.32393842     0.18700
C183        C  0.18835065  0.00276361  0.48001350    -0.26600
C184        C  0.16507701  0.01462977  0.50093987     0.07000
C185        C  0.17149069  0.99867871  0.53175115     0.26600
C186        C  0.19977316  0.97061258  0.54091357    -0.11100
C187        C  0.22231038  0.95837284  0.51968343    -0.25000
C188        C  0.21676100  0.97505720  0.48930444     0.37400
C189        C  0.13232126  0.04126736  0.48964130     0.07000
F190        F  0.14879583  0.00845428  0.55240415    -0.18800
H191        H  0.20277523  0.95719784  0.56408707     0.16800
F192        F  0.23829326  0.96364876  0.46841561    -0.22500
H193        H  0.18407139  0.01461887  0.45624240     0.18600
C194        C  0.13019227  0.07643790  0.50624084     0.26600
C195        C  0.09784684  0.09986170  0.49585732    -0.11100
C196        C  0.06736065  0.08881907  0.46876320    -0.25100
C197        C  0.06988365  0.05435602  0.45177273     0.37500
C198        C  0.10219161  0.03092413  0.46205005    -0.26700
F199        F  0.15938070  0.08819681  0.53238822    -0.18800
H200        H  0.09593642  0.12623824  0.50928339     0.16800
F201        F  0.04013430  0.04253317  0.42599500    -0.22500
H202        H  0.10299741  0.00390092  0.44895651     0.18700
C203        C  0.16386676  0.82600777  0.45147053    -0.26600
C204        C  0.12803625  0.82151469  0.46426066     0.07000
C205        C  0.12856525  0.84299664  0.49191897     0.26600
C206        C  0.16472083  0.86733407  0.50691980    -0.11100
C207        C  0.20092237  0.87037254  0.49474513    -0.25000
C208        C  0.19998520  0.85010133  0.46655316     0.37400
C209        C  0.09066024  0.79382541  0.44903307     0.07000
F210        F  0.09424458  0.84015074  0.50458747    -0.18800
H211        H  0.16499351  0.88229597  0.52882665     0.16800
F212        F  0.23435815  0.85299245  0.45393194    -0.22500
H213        H  0.16432446  0.80976876  0.43028195     0.18600
C214        C  0.07418311  0.79622625  0.41649752     0.26600
C215        C  0.03816049  0.77097559  0.40268288    -0.11100
C216        C  0.01787856  0.74310883  0.42096871    -0.25100
C217        C  0.03506068  0.73945553  0.45314879     0.37500
C218        C  0.07119734  0.76461120  0.46704193    -0.26700
F219        F  0.09180817  0.82417824  0.39832276    -0.18800
H220        H  0.02498870  0.77420039  0.37786188     0.16800
F221        F  0.01666872  0.71175199  0.47104478    -0.22500
H222        H  0.08393382  0.76141313  0.49194158     0.18700
C223        C  0.33393836  0.99088744  0.61686075    -0.26600
C224        C  0.37307517  0.00647333  0.61087031     0.07000
C225        C  0.37968867  0.00398991  0.58001566     0.26600
C226        C  0.34897687  0.98353473  0.55656057    -0.11100
C227        C  0.31150497  0.96470312  0.56342994    -0.25000
C228        C  0.30364976  0.96958232  0.59355019     0.37400
C229        C  0.40876402  0.01722078  0.63770056     0.07000
F230        F  0.41748467  0.01673160  0.57338827    -0.18800
H231        H  0.35610260  0.97890329  0.53377652     0.16800
F232        F  0.26931007  0.94921466  0.60174650    -0.22500
H233        H  0.32818314  0.99208296  0.64045161     0.18600
C234        C  0.43859903  0.05137570  0.63713217     0.26600
C235        C  0.47509080  0.05675920  0.66059632    -0.11100
C236        C  0.48220165  0.02848523  0.68515300    -0.25100
C237        C  0.45126779  0.99562407  0.68653106     0.37500
C238        C  0.41520238  0.99013501  0.66306743    -0.26700
F239        F  0.43272448  0.07922824  0.61378055    -0.18800
H240        H  0.49814663  0.08261893  0.65921002     0.16800
F241        F  0.45652668  0.96755814  0.70977055    -0.22500
H242        H  0.39305361  0.96337528  0.66400821     0.18700
C243        C  0.87386689  0.44359409  0.07079800    -0.26600
C244        C  0.85927561  0.43382714  0.09851218     0.07000
C245        C  0.81928234  0.44207455  0.10023776     0.26600
C246        C  0.79599475  0.46279895  0.07571958    -0.11100
C247        C  0.81253050  0.47598383  0.04944347    -0.25000
C248        C  0.85087197  0.46466956  0.04654660     0.37400
C249        C  0.88869561  0.42179981  0.12689520     0.07000
F250        F  0.80395477  0.43244522  0.12648993    -0.18800
H251        H  0.76677275  0.47167043  0.07857870     0.16800
F252        F  0.86760419  0.47689393  0.02134555    -0.22500
H253        H  0.90465574  0.43791827  0.06898304     0.18600
C254        C  0.91338670  0.39089797  0.12565694     0.26600
C255        C  0.94635165  0.38533424  0.15079113    -0.11100
C256        C  0.95516129  0.41039187  0.17757542    -0.25100
C257        C  0.92898892  0.43982607  0.17944639     0.37500
C258        C  0.89625932  0.44542641  0.15432590    -0.26700
F259        F  0.90626606  0.36683081  0.09981734    -0.18800
H260        H  0.96572643  0.36216850  0.14890817     0.16800
F261        F  0.93635652  0.46488291  0.20474030    -0.22500
H262        H  0.87818567  0.46988426  0.15563845     0.18700
C263        C  0.67814506  0.62536559  0.97662841    -0.26600
C264        C  0.64922606  0.60395275  0.95243281     0.07000
C265        C  0.65411861  0.56375189  0.94616333     0.26600
C266        C  0.68754463  0.54579863  0.96358251    -0.11100
C267        C  0.71623846  0.56720822  0.98794989    -0.25000
C268        C  0.71104041  0.60724989  0.99434432     0.37400
C269        C  0.61419267  0.62379200  0.93405924     0.07000
F270        F  0.62637473  0.54159306  0.92344999    -0.18800
H271        H  0.69136737  0.51549140  0.95741218     0.16800
F272        F  0.73772830  0.62902207  0.01788457    -0.22500
H273        H  0.67553678  0.65647723  0.98168072     0.18600
C274        C  0.59030230  0.64537127  0.94938550     0.26600
C275        C  0.55651076  0.66264664  0.93199341    -0.11100
C276        C  0.54524645  0.65794742  0.89918309    -0.25100
C277        C  0.56988153  0.63778430  0.88370506     0.37500
C278        C  0.60417633  0.62108777  0.90099956    -0.26700
F279        F  0.59811019  0.64784381  0.98129066    -0.18800
H280        H  0.53768611  0.67795189  0.94425139     0.16800
F281        F  0.55919390  0.63208149  0.85205695    -0.22500
H282        H  0.62248606  0.60536121  0.88856521     0.18700
C283        C  0.54337744  0.76750793  0.80283338    -0.26600
C284        C  0.56426069  0.79745431  0.82481337     0.07000
C285        C  0.57010027  0.78810526  0.85714215     0.26600
C286        C  0.55242951  0.75079758  0.86718548    -0.11100
C287        C  0.52831248  0.72241734  0.84520332    -0.25000
C288        C  0.52545852  0.73036777  0.81288450     0.37400
C289        C  0.57508159  0.83952789  0.81398011     0.07000
F290        F  0.59097814  0.81592445  0.87904794    -0.18800
H291        H  0.55463316  0.74561492  0.89217798     0.16800
F292        F  0.50279583  0.70332244  0.79102143    -0.22500
H293        H  0.53836895  0.77392699  0.77783338     0.18600
C294        C  0.59684994  0.84755004  0.78950652     0.26600
C295        C  0.60302653  0.88694136  0.77762396    -0.11100
C296        C  0.58755380  0.91906466  0.78982684    -0.25100
C297        C  0.56671403  0.91114441  0.81488125     0.37500
C298        C  0.56053768  0.87182317  0.82667736    -0.26700
F299        F  0.61207692  0.81729272  0.77705990    -0.18800
H300        H  0.61940919  0.89217845  0.75849730     0.16800
F301        F  0.55125096  0.94109702  0.82751938    -0.22500
H302        H  0.54309104  0.86635388  0.84517285     0.18700
C303        C  0.39385013  0.55534846  0.00098299    -0.26600
C304        C  0.43523808  0.57033993  0.00054342     0.07000
C305        C  0.46584450  0.56921316  0.02825476     0.26600
C306        C  0.45474871  0.55430086  0.05621404    -0.11100
C307        C  0.41321360  0.53997190  0.05665760    -0.25000
C308        C  0.38284131  0.54026369  0.02878653     0.37400
C309        C  0.44500704  0.59110841  0.97202490     0.07000
F310        F  0.50591464  0.58451384  0.02864015    -0.18800
H311        H  0.47834853  0.55469067  0.07766573     0.16800
F312        F  0.34217209  0.52836734  0.02890428    -0.22500
H313        H  0.36983888  0.55657553  0.97992624     0.18600
C314        C  0.47069756  0.57594302  0.95442037     0.26600
C315        C  0.47810062  0.59581716  0.92687097    -0.11100
C316        C  0.46046328  0.63129632  0.91693364    -0.25100
C317        C  0.43513213  0.64647338  0.93484635     0.37500
C318        C  0.42738528  0.62640992  0.96200742    -0.26700
F319        F  0.48767682  0.54151777  0.96345240    -0.18800
H320        H  0.49739568  0.58346209  0.91322767     0.16800
F321        F  0.41853741  0.68126817  0.92643125    -0.22500
H322        H  0.40775309  0.63860751  0.97546705     0.18700
C323        C  0.31181273  0.43921704  0.17733498    -0.26600
C324        C  0.27139973  0.43418156  0.15857547     0.07000
C325        C  0.26638984  0.44099595  0.12588619     0.26600
C326        C  0.30074989  0.45541123  0.11290147    -0.11100
C327        C  0.34028805  0.46437516  0.13230367    -0.25000
C328        C  0.34588911  0.45473634  0.16445215     0.37400
C329        C  0.23490886  0.42807451  0.17392774     0.07000
F330        F  0.22797905  0.43820725  0.10700348    -0.18800
H331        H  0.29570530  0.46360707  0.08820257     0.16800
F332        F  0.38378129  0.46323385  0.18378602    -0.22500
H333        H  0.31663199  0.43372304  0.20246327     0.18600
C334        C  0.19940609  0.40036583  0.16222781     0.26600
C335        C  0.16463153  0.39766690  0.17609220    -0.11100
C336        C  0.16478772  0.42195981  0.20215610    -0.25100
C337        C  0.20055354  0.44907716  0.21416545     0.37500
C338        C  0.23498340  0.45212294  0.20009457    -0.26700
F339        F  0.19858102  0.37526799  0.13791046    -0.18800
H340        H  0.13770681  0.37613214  0.16664058     0.16800
F341        F  0.20231132  0.47300485  0.23937206    -0.22500
H342        H  0.26163168  0.47405322  0.20939978     0.18700
C343        C  0.43162520  0.33206916  0.02582500    -0.26600
C344        C  0.43339285  0.37403815  0.02156418     0.07000
C345        C  0.45063370  0.39252312  0.99697739     0.26600
C346        C  0.46553692  0.36908653  0.97666501    -0.11100
C347        C  0.46255231  0.32693822  0.98026992    -0.25000
C348        C  0.44551506  0.30850085  0.00500544     0.37400
C349        C  0.41640588  0.39857129  0.04226339     0.07000
F350        F  0.45205534  0.43308655  0.99221483    -0.18800
H351        H  0.47760064  0.38356301  0.95723833     0.16800
F352        F  0.44143647  0.26762603  0.00850042    -0.22500
H353        H  0.41829090  0.31751389  0.04465257     0.18600
C354        C  0.37827306  0.41333587  0.03127677     0.26600
C355        C  0.36488537  0.44090629  0.04944851    -0.11100
C356        C  0.38966844  0.45435468  0.07847169    -0.25100
C357        C  0.42661515  0.43771850  0.09020691     0.37500
C358        C  0.43979048  0.40982411  0.07223517    -0.26700
F359        F  0.35502064  0.40241522  0.00241267    -0.18800
H360        H  0.33635954  0.45341880  0.04017899     0.16800
F361        F  0.45147320  0.45105610  0.11793734    -0.22500
H362        H  0.46928436  0.39868183  0.08092467     0.18700
C363        C  0.60077792  0.38303598  0.94871289    -0.26600
C364        C  0.61672976  0.38659056  0.98131789     0.07000
C365        C  0.59658901  0.36194270  0.00183107     0.26600
C366        C  0.56136940  0.33427904  0.98976195    -0.11100
C367        C  0.54526483  0.33096128  0.95710252    -0.25000
C368        C  0.56537827  0.35577309  0.93670022     0.37400
C369        C  0.65404093  0.41641972  0.99332777     0.07000
F370        F  0.61131473  0.36416660  0.03344635    -0.18800
H371        H  0.54646189  0.31544492  0.00593334     0.16800
F372        F  0.54970612  0.35506653  0.90522599    -0.22500
H373        H  0.61530852  0.40219775  0.93249166     0.18600
C374        C  0.69071352  0.41588805  0.98202850     0.26600
C375        C  0.72451188  0.44606005  0.99103213    -0.11100
C376        C  0.72217566  0.47779325  0.01090741    -0.25100
C377        C  0.68614517  0.47790662  0.02302148     0.37500
C378        C  0.65246093  0.44721608  0.01449258    -0.26700
F379        F  0.69358867  0.38645020  0.96186015    -0.18800
H380        H  0.75204706  0.44573601  0.98143776     0.16800
F381        F  0.68338170  0.50814014  0.04252151    -0.22500
H382        H  0.62453243  0.44835343  0.02341987     0.18700
C383        C  0.58057894  0.22245693  0.89913789    -0.26600
C384        C  0.56743584  0.21982997  0.86613324     0.07000
C385        C  0.53619266  0.24276283  0.85116488     0.26600
C386        C  0.51712908  0.26575133  0.86898375    -0.11100
C387        C  0.52843207  0.26625930  0.90199331    -0.25000
C388        C  0.56127650  0.24550097  0.91697375     0.37400
C389        C  0.58209359  0.18938433  0.84794383     0.07000
F390        F  0.52104244  0.23982675  0.81962232    -0.18800
H391        H  0.49118891  0.28080089  0.85709986     0.16800
F392        F  0.57178503  0.24413387  0.94888790    -0.22500
H393        H  0.60437827  0.20495162  0.91124124     0.18600
C394        C  0.59326016  0.19904362  0.81881157     0.26600
C395        C  0.60047487  0.16851200  0.79979769    -0.11100
C396        C  0.59774886  0.12796265  0.80976886    -0.25100
C397        C  0.58916167  0.11868121  0.83976085     0.37500
C398        C  0.58123506  0.14907297  0.85848253    -0.26700
F399        F  0.59672472  0.23793775  0.80854818    -0.18800
H400        H  0.60755408  0.17651324  0.77699961     0.16800
F401        F  0.58595785  0.07988160  0.85029782    -0.22500
H402        H  0.57250071  0.14069569  0.88068957     0.18700
loop_ 
_geom_bond_atom_site_label_1 
_geom_bond_atom_site_label_2 
_geom_bond_distance 
_geom_bond_site_symmetry_2 
_ccdc_geom_bond_type 
N1            C5   1.361       .  A
N1            C2   1.362       .  A
N1          C367   1.449       .  S
C2            C3   1.383       .  A
C2          C387   1.479       .  S
C3            C4   1.370       .  A
C3            H6   1.082       .  S
C4            C5   1.380       .  A
C4            H7   1.082       .  S
C5          C347   1.473       .  S
N8           C12   1.352       .  A
N8            C9   1.353       .  A
N8          C356   1.435       .  S
C9           C10   1.385       .  A
C9          C327   1.476       .  S
C10          C11   1.378       .  A
C10          H13   1.082       .  S
C11          C12   1.379       .  A
C11          H14   1.082       .  S
C12         C307   1.475       .  S
N15          C19   1.358       .  A
N15          C16   1.358       .  A
N15         C276   1.440       .  S
C16          C17   1.385       .  A
C16         C287   1.483       .  S
C17          C18   1.375       .  A
C17          H20   1.082       .  S
C18          C19   1.381       .  A
C18          H21   1.082       .  S
C19         C316   1.482       .  S
N22          C26   1.362       .  A
N22          C23   1.358       .  A
N22         C376   1.442       .  S
C23          C24   1.382       .  A
C23         C247   1.479       .  S
C24          C25   1.371       .  A
C24          H27   1.082       .  S
C25          C26   1.384       .  A
C25          H28   1.082       .  S
C26         C267   1.486   1_554  S
N29          C33   1.359       .  A
N29          C30   1.358       .  A
N29         C187   1.440       .  S
C30          C31   1.382       .  A
C30         C227   1.476       .  S
C31          C32   1.371       .  A
C31          H34   1.082       .  S
C32          C33   1.382       .  A
C32          H35   1.082       .  S
C33         C207   1.480       .  S
N36          C40   1.356   1_455  A
N36          C37   1.357       .  A
N36         C196   1.438       .  S
C37          C38   1.382   1_455  A
C37         C167   1.473       .  S
C38          C39   1.371       .  A
C38          H41   1.082       .  S
C39          C40   1.381       .  A
C39          H42   1.082       .  S
C40         C156   1.473       .  S
N43          C47   1.355       .  A
N43          C44   1.358       .  A
N43         C147   1.436       .  S
C44          C45   1.388       .  A
C44         C136   1.489       .  S
C45          C46   1.376       .  A
C45          H48   1.082       .  S
C46          C47   1.378       .  A
C46          H49   1.082       .  S
C47         C107   1.477       .  S
N50          C54   1.357       .  A
N50          C51   1.356       .  A
N50         C216   1.438   1_655  S
C51          C52   1.382       .  A
C51          C87   1.477       .  S
C52          C53   1.373       .  A
C52          H55   1.082       .  S
C53          C54   1.383       .  A
C53          H56   1.082       .  S
C54         C116   1.480       .  S
In57         O59   2.249   1_545  S
In57         O60   2.263   1_545  S
In57         O68   2.266       .  S
In57         O62   2.249       .  S
In57         O64   2.277       .  S
In57         O65   2.245       .  S
In57         O66   2.233       .  S
In57         O69   2.275       .  S
C58         C127   1.485       .  S
C58          O64   1.263       .  A
C58          O66   1.259       .  A
O59          C67   1.261       .  A
O60          C67   1.262       .  A
C61         C396   1.483       .  S
C61          O68   1.260       .  A
C61          O62   1.258       .  A
C63         C236   1.484       .  S
C63          O65   1.257       .  A
C63          O69   1.259       .  A
C67         C296   1.486       .  S
In70         O72   2.248       .  S
In70         O73   2.267       .  S
In70         O81   2.255       .  S
In70         O75   2.249       .  S
In70         O77   2.251       .  S
In70         O78   2.253       .  S
In70         O79   2.256       .  S
In70         O82   2.261       .  S
C71          C96   1.486       .  S
C71          O77   1.264       .  A
C71          O79   1.264       .  A
O72          C80   1.257   1_455  A
O73          C80   1.260   1_455  A
C74         C336   1.482       .  S
C74          O81   1.260       .  A
C74          O75   1.260       .  A
C76         C176   1.483       .  S
C76          O78   1.258       .  A
C76          O82   1.258       .  A
C80         C256   1.482       .  S
C83          C84   1.406       .  A
C83          C88   1.398   1_455  A
C83          H93   1.083       .  S
C84          C85   1.409       .  A
C84          C89   1.489       .  S
C85          C86   1.402       .  A
C85          F90   1.357       .  S
C86          C87   1.403   1_455  A
C86          H91   1.083       .  S
C87          C88   1.404       .  A
C88          F92   1.357       .  S
C89          C94   1.409       .  A
C89          C98   1.405       .  A
C94          C95   1.401       .  A
C94          F99   1.358       .  S
C95          C96   1.406       .  A
C95         H100   1.083       .  S
C96          C97   1.409       .  A
C97          C98   1.401       .  A
C97         F101   1.357       .  S
C98         H102   1.083       .  S
C103        C104   1.405       .  A
C103        C108   1.402       .  A
C103        H113   1.083       .  S
C104        C105   1.408       .  A
C104        C109   1.483       .  S
C105        C106   1.395       .  A
C105        F110   1.358       .  S
C106        C107   1.400       .  A
C106        H111   1.084       .  S
C107        C108   1.406       .  A
C108        F112   1.357       .  S
C109        C114   1.409       .  A
C109        C118   1.402       .  A
C114        C115   1.405       .  A
C114        F119   1.357       .  S
C115        C116   1.405       .  A
C115        H120   1.083       .  S
C116        C117   1.405       .  A
C117        C118   1.392       .  A
C117        F121   1.358       .  S
C118        H122   1.083       .  S
C123        C124   1.410       .  A
C123        C128   1.404       .  A
C123        H133   1.083       .  S
C124        C125   1.409       .  A
C124        C129   1.494   1_545  S
C125        C126   1.396       .  A
C125        F130   1.357       .  S
C126        C127   1.404       .  A
C126        H131   1.083       .  S
C127        C128   1.408       .  A
C128        F132   1.357       .  S
C129        C134   1.411       .  A
C129        C138   1.405       .  A
C134        C135   1.404       .  A
C134        F139   1.357   1_565  S
C135        C136   1.406       .  A
C135        H140   1.081       .  S
C136        C137   1.408       .  A
C137        C138   1.396       .  A
C137        F141   1.358       .  S
C138        H142   1.083       .  S
C143        C144   1.404       .  A
C143        C148   1.395       .  A
C143        H153   1.083       .  S
C144        C145   1.408       .  A
C144        C149   1.482   1_565  S
C145        C146   1.400       .  A
C145        F150   1.357   1_565  S
C146        C147   1.401       .  A
C146        H151   1.083       .  S
C147        C148   1.404       .  A
C148        F152   1.357       .  S
C149        C154   1.410       .  A
C149        C158   1.402       .  A
C154        C155   1.400       .  A
C154        F159   1.358   1_545  S
C155        C156   1.402       .  A
C155        H160   1.083       .  S
C156        C157   1.404       .  A
C157        C158   1.395       .  A
C157        F161   1.357       .  S
C158        H162   1.083       .  S
C163        C164   1.406       .  A
C163        C168   1.401       .  A
C163        H173   1.083       .  S
C164        C165   1.408       .  A
C164        C169   1.486       .  S
C165        C166   1.399       .  A
C165        F170   1.358       .  S
C166        C167   1.403       .  A
C166        H171   1.084       .  S
C167        C168   1.404       .  A
C168        F172   1.357       .  S
C169        C174   1.406       .  A
C169        C178   1.405       .  A
C174        C175   1.402       .  A
C174        F179   1.357       .  S
C175        C176   1.407       .  A
C175        H180   1.083       .  S
C176        C177   1.407       .  A
C177        C178   1.397       .  A
C177        F181   1.357       .  S
C178        H182   1.083       .  S
C183        C184   1.405       .  A
C183        C188   1.399   1_545  A
C183        H193   1.083       .  S
C184        C185   1.411   1_545  A
C184        C189   1.490       .  S
C185        C186   1.404       .  A
C185        F190   1.357   1_565  S
C186        C187   1.402       .  A
C186        H191   1.081       .  S
C187        C188   1.403       .  A
C188        F192   1.357       .  S
C189        C194   1.409       .  A
C189        C198   1.408       .  A
C194        C195   1.402       .  A
C194        F199   1.357       .  S
C195        C196   1.403       .  A
C195        H200   1.083       .  S
C196        C197   1.402       .  A
C197        C198   1.401       .  A
C197        F201   1.356       .  S
C198        H202   1.083       .  S
C203        C204   1.404       .  A
C203        C208   1.398       .  A
C203        H213   1.083       .  S
C204        C205   1.410       .  A
C204        C209   1.487       .  S
C205        C206   1.401       .  A
C205        F210   1.357       .  S
C206        C207   1.402       .  A
C206        H211   1.083       .  S
C207        C208   1.406       .  A
C208        F212   1.358       .  S
C209        C214   1.408       .  A
C209        C218   1.408       .  A
C214        C215   1.398       .  A
C214        F219   1.357       .  S
C215        C216   1.402       .  A
C215        H220   1.083       .  S
C216        C217   1.403       .  A
C217        C218   1.400       .  A
C217        F221   1.357       .  S
C218        H222   1.083       .  S
C223        C224   1.408   1_565  A
C223        C228   1.400       .  A
C223        H233   1.083       .  S
C224        C225   1.408       .  A
C224        C229   1.490       .  S
C225        C226   1.399   1_545  A
C225        F230   1.357       .  S
C226        C227   1.403       .  A
C226        H231   1.084       .  S
C227        C228   1.404       .  A
C228        F232   1.356       .  S
C229        C234   1.409       .  A
C229        C238   1.405   1_545  A
C234        C235   1.404       .  A
C234        F239   1.357       .  S
C235        C236   1.407       .  A
C235        H240   1.083       .  S
C236        C237   1.407   1_545  A
C237        C238   1.395       .  A
C237        F241   1.357       .  S
C238        H242   1.083       .  S
C243        C244   1.404       .  A
C243        C248   1.397       .  A
C243        H253   1.083       .  S
C244        C245   1.409       .  A
C244        C249   1.485       .  S
C245        C246   1.402       .  A
C245        F250   1.357       .  S
C246        C247   1.403       .  A
C246        H251   1.083       .  S
C247        C248   1.406       .  A
C248        F252   1.358       .  S
C249        C254   1.407       .  A
C249        C258   1.404       .  A
C254        C255   1.402       .  A
C254        F259   1.357       .  S
C255        C256   1.406       .  A
C255        H260   1.083       .  S
C256        C257   1.408       .  A
C257        C258   1.397       .  A
C257        F261   1.358       .  S
C258        H262   1.083       .  S
C263        C264   1.403       .  A
C263        C268   1.395       .  A
C263        H273   1.083       .  S
C264        C265   1.410       .  A
C264        C269   1.488       .  S
C265        C266   1.401       .  A
C265        F270   1.357       .  S
C266        C267   1.404       .  A
C266        H271   1.081       .  S
C267        C268   1.409       .  A
C268        F272   1.358   1_556  S
C269        C274   1.410       .  A
C269        C278   1.406       .  A
C274        C275   1.398       .  A
C274        F279   1.357       .  S
C275        C276   1.402       .  A
C275        H280   1.083       .  S
C276        C277   1.404       .  A
C277        C278   1.399       .  A
C277        F281   1.357       .  S
C278        H282   1.083       .  S
C283        C284   1.405       .  A
C283        C288   1.400       .  A
C283        H293   1.083       .  S
C284        C285   1.408       .  A
C284        C289   1.489       .  S
C285        C286   1.401       .  A
C285        F290   1.357       .  S
C286        C287   1.404       .  A
C286        H291   1.083       .  S
C287        C288   1.407       .  A
C288        F292   1.358       .  S
C289        C294   1.407       .  A
C289        C298   1.405       .  A
C294        C295   1.402       .  A
C294        F299   1.357       .  S
C295        C296   1.407       .  A
C295        H300   1.083       .  S
C296        C297   1.409       .  A
C297        C298   1.399       .  A
C297        F301   1.358       .  S
C298        H302   1.083       .  S
C303        C304   1.402       .  A
C303        C308   1.396       .  A
C303        H313   1.084   1_554  S
C304        C305   1.406       .  A
C304        C309   1.477   1_554  S
C305        C306   1.401       .  A
C305        F310   1.357       .  S
C306        C307   1.402       .  A
C306        H311   1.083       .  S
C307        C308   1.404       .  A
C308        F312   1.357       .  S
C309        C314   1.406       .  A
C309        C318   1.401       .  A
C314        C315   1.403       .  A
C314        F319   1.357       .  S
C315        C316   1.406       .  A
C315        H320   1.083       .  S
C316        C317   1.406       .  A
C317        C318   1.394       .  A
C317        F321   1.358       .  S
C318        H322   1.084       .  S
C323        C324   1.408       .  A
C323        C328   1.399       .  A
C323        H333   1.083       .  S
C324        C325   1.410       .  A
C324        C329   1.490       .  S
C325        C326   1.400       .  A
C325        F330   1.357       .  S
C326        C327   1.403       .  A
C326        H331   1.083       .  S
C327        C328   1.403       .  A
C328        F332   1.357       .  S
C329        C334   1.408       .  A
C329        C338   1.406       .  A
C334        C335   1.402       .  A
C334        F339   1.357       .  S
C335        C336   1.407       .  A
C335        H340   1.083       .  S
C336        C337   1.406       .  A
C337        C338   1.396       .  A
C337        F341   1.357       .  S
C338        H342   1.083       .  S
C343        C344   1.400       .  A
C343        C348   1.398       .  A
C343        H353   1.083       .  S
C344        C345   1.405   1_554  A
C344        C349   1.472       .  S
C345        C346   1.398       .  A
C345        F350   1.357       .  S
C346        C347   1.401       .  A
C346        H351   1.083       .  S
C347        C348   1.407   1_556  A
C348        F352   1.358       .  S
C349        C354   1.405       .  A
C349        C358   1.400       .  A
C354        C355   1.399       .  A
C354        F359   1.357       .  S
C355        C356   1.401       .  A
C355        H360   1.081       .  S
C356        C357   1.406       .  A
C357        C358   1.397       .  A
C357        F361   1.357       .  S
C358        H362   1.083       .  S
C363        C364   1.406       .  A
C363        C368   1.401       .  A
C363        H373   1.083       .  S
C364        C365   1.407   1_556  A
C364        C369   1.491       .  S
C365        C366   1.405   1_554  A
C365        F370   1.357       .  S
C366        C367   1.408       .  A
C366        H371   1.083   1_556  S
C367        C368   1.406       .  A
C368        F372   1.356       .  S
C369        C374   1.408       .  A
C369        C378   1.408   1_556  A
C374        C375   1.400       .  A
C374        F379   1.357       .  S
C375        C376   1.402   1_556  A
C375        H380   1.083       .  S
C376        C377   1.405       .  A
C377        C378   1.405       .  A
C377        F381   1.357       .  S
C378        H382   1.083       .  S
C383        C384   1.409       .  A
C383        C388   1.403       .  A
C383        H393   1.083       .  S
C384        C385   1.409       .  A
C384        C389   1.491       .  S
C385        C386   1.397       .  A
C385        F390   1.357       .  S
C386        C387   1.403       .  A
C386        H391   1.084       .  S
C387        C388   1.404       .  A
C388        F392   1.357       .  S
C389        C394   1.409       .  A
C389        C398   1.406       .  A
C394        C395   1.402       .  A
C394        F399   1.357       .  S
C395        C396   1.405       .  A
C395        H400   1.083       .  S
C396        C397   1.409       .  A
C397        C398   1.399       .  A
C397        F401   1.358       .  S
C398        H402   1.083       .  S
