geometry optimzed in LAMMPS
_audit_creation_date              2020-12-01 
_audit_creation_method            'lammps2cif' 
_symmetry_space_group_name_H-M    'P1' 
_symmetry_Int_Tables_number       1 
_symmetry_cell_setting            triclinic 
loop_ 
_symmetry_equiv_pos_as_xyz 
  x,y,z 
_cell_length_a                    38.12964143 
_cell_length_b                    36.361933120710745 
_cell_length_c                    39.252707626393196 
_cell_angle_alpha                 90.00361954023968 
_cell_angle_beta                  90.00422275069603 
_cell_angle_gamma                 90.45441880211474 
loop_ 
_atom_site_label 
_atom_site_type_symbol 
_atom_site_fract_x 
_atom_site_fract_y 
_atom_site_fract_z 
_atom_site_charge 
O1          O  0.21478182  0.26724875  0.17671340    -0.79600
O2          O  0.27564913  0.29063127  0.30958091    -0.79600
O3          O  0.19925397  0.30554363  0.28593525    -0.79600
O4          O  0.32292012  0.27204320  0.21757421    -0.79600
O5          O  0.21470712  0.26724943  0.32625884    -0.79700
O6          O  0.27570832  0.29063564  0.19346362    -0.79600
O7          O  0.32288358  0.27204085  0.28551488    -0.79600
O8          O  0.19929187  0.30554250  0.21702545    -0.79600
C9          C  0.19954142  0.29642272  0.18614672     1.10100
C10         C  0.30790330  0.29340396  0.30573724     1.10000
C11         C  0.19947439  0.29642230  0.31681281     1.10100
C12         C  0.30796015  0.29340600  0.19733608     1.10000
O13         O  0.27453864  0.22208095  0.16591720    -0.79600
O14         O  0.22511194  0.19769385  0.29176268    -0.79700
O15         O  0.17720119  0.22958872  0.21659900    -0.79600
O16         O  0.29367686  0.19839178  0.28843973    -0.79600
O17         O  0.27444689  0.22207722  0.33711939    -0.79600
O18         O  0.22515561  0.19769343  0.21121509    -0.79600
O19         O  0.29371867  0.19839196  0.21461298    -0.79600
O20         O  0.17716338  0.22958942  0.28633452    -0.79600
Co21       Co  0.25275617  0.24368490  0.20466541     1.51500
Co22       Co  0.25270820  0.24368273  0.29834810     1.51700
Co23       Co  0.19223325  0.26718556  0.25147527     1.51600
Co24       Co  0.30130709  0.23768965  0.25153217     1.51500
O25         O  0.24626191  0.25965530  0.25150437    -1.41500
C26         C  0.29528576  0.20089901  0.18182533     1.10000
C27         C  0.19271705  0.20124314  0.29703711     1.10100
C28         C  0.19276394  0.20124001  0.20591523     1.10100
C29         C  0.29520782  0.20089400  0.32123017     1.10000
C30         C  0.36644716  0.35895356  0.36932195     0.87000
C31         C  0.39167334  0.38484614  0.35024138    -0.53200
C32         C  0.41191947  0.40586716  0.37121817     0.10000
C33         C  0.40500509  0.39874357  0.40950933     0.20900
C34         C  0.38976373  0.33600474  0.39328540    -0.53900
C35         C  0.40989816  0.35699482  0.41466371     0.10100
C36         C  0.34496390  0.38392859  0.39299936    -0.53500
C37         C  0.36532735  0.40477162  0.41421175     0.10600
H38         H  0.39320611  0.38665275  0.32265768     0.15100
H39         H  0.42156592  0.41591995  0.42665694     0.00900
H40         H  0.39047130  0.30615582  0.39319735     0.15500
H41         H  0.31651175  0.38502210  0.39304332     0.15200
C42         C  0.36727856  0.13914060  0.37297020     0.87000
C43         C  0.34815917  0.11273095  0.39714084    -0.53200
C44         C  0.37010532  0.09147436  0.41568320     0.10000
C45         C  0.40935107  0.09891521  0.40861388     0.20900
C46         C  0.39250867  0.16180077  0.39566637    -0.53900
C47         C  0.41488473  0.14064766  0.41436394     0.10100
C48         C  0.39105825  0.11451429  0.35095779    -0.53500
C49         C  0.41315948  0.09324813  0.36988167     0.10600
H50         H  0.31979094  0.11070746  0.39923919     0.15100
H51         H  0.42717236  0.08150581  0.42402975     0.00900
H52         H  0.39234658  0.19161766  0.39717732     0.15500
H53         H  0.39030331  0.11372566  0.32331797     0.15200
C54         C  0.13569283  0.36095746  0.37388243     0.87000
C55         C  0.15503067  0.38857500  0.39673692    -0.53200
C56         C  0.13309443  0.41053649  0.41467804     0.10000
C57         C  0.09383601  0.40250871  0.40825273     0.20900
C58         C  0.11106855  0.33925241  0.39754838    -0.53900
C59         C  0.08896861  0.36102727  0.41559037     0.10100
C60         C  0.11148041  0.38435214  0.35110058    -0.53500
C61         C  0.08943371  0.40634570  0.36936123     0.10600
H62         H  0.18339857  0.39032019  0.39895726     0.15100
H63         H  0.07599826  0.42032949  0.42323721     0.00900
H64         H  0.11100671  0.30947445  0.39979496     0.15500
H65         H  0.11211464  0.38402635  0.32345081     0.15200
C66         C  0.13715955  0.14060593  0.36785240     0.87000
C67         C  0.11204060  0.11347583  0.35033718    -0.53200
C68         C  0.09231152  0.09332760  0.37238664     0.10000
C69         C  0.09953631  0.10228206  0.41024625     0.20900
C70         C  0.11355283  0.16439912  0.39118986    -0.53900
C71         C  0.09371611  0.14409945  0.41365602     0.10100
C72         C  0.15920201  0.11707677  0.39240311    -0.53500
C73         C  0.13942478  0.09702834  0.41480920     0.10600
H74         H  0.10986659  0.11051030  0.32287159     0.15100
H75         H  0.08341263  0.08559461  0.42817101     0.00900
H76         H  0.11265163  0.19420430  0.39003962     0.15500
H77         H  0.18763637  0.11582192  0.39170343     0.15200
N78         N  0.00135069  0.44313089  0.36023498    -0.36100
N79         N  0.44852840  0.99996689  0.35602223    -0.56600
N80         N  0.00200723  0.05602826  0.36068085    -0.36100
N81         N  0.05472190  0.99965393  0.35654137    -0.56600
C82         C  0.47252063  0.42293869  0.35285552     0.27500
C83         C  0.02927679  0.42298265  0.35069525     0.27500
C84         C  0.47403491  0.07742992  0.35416627     0.27500
C85         C  0.03082609  0.07737213  0.35696245     0.27500
C86         C  0.42734194  0.47020528  0.35332418     0.36100
C87         C  0.42802372  0.02959271  0.35105582     0.36100
C88         C  0.07535782  0.47022228  0.35128355     0.36100
C89         C  0.07586464  0.02947924  0.35425572     0.36100
C90         C  0.48203168  0.39046183  0.33723814    -0.21300
C91         C  0.01816709  0.39048860  0.33589352    -0.21300
C92         C  0.48514027  0.11236904  0.34535383    -0.21300
C93         C  0.02121459  0.11231926  0.34706251    -0.21300
C94         C  0.39425326  0.48067571  0.34328381    -0.22400
C95         C  0.39469510  0.01854654  0.34181950    -0.22400
C96         C  0.10870034  0.48138386  0.34237359    -0.22400
C97         C  0.10899651  0.01917105  0.34413768    -0.22400
C98         C  0.43786912  0.43373117  0.35889370    -0.17700
C99         C  0.06449845  0.43342404  0.35459720    -0.17700
C100        C  0.06560001  0.06581510  0.36119265    -0.17700
C101        C  0.43873439  0.06637170  0.35592876    -0.17700
H102        H  0.46468100  0.36955108  0.32696273     0.15200
H103        H  0.03444993  0.36952568  0.32457853     0.15200
H104        H  0.46887761  0.13499728  0.33728773     0.15200
H105        H  0.03852783  0.13484803  0.34030286     0.15200
H106        H  0.37261099  0.46276428  0.33648051     0.13400
H107        H  0.37333975  0.03603498  0.33404684     0.13400
H108        H  0.13005645  0.46401571  0.33436188     0.13400
H109        H  0.13063254  0.03716606  0.33756115     0.13400
H110        H  0.00191404  0.46707736  0.37472638     0.26700
H111        H  0.00143075  0.02993341  0.37129765     0.26700
C112        C  0.36651277  0.35894811  0.13375197     0.87000
C113        C  0.34501327  0.38392826  0.11009047    -0.53200
C114        C  0.36536061  0.40477297  0.08886923     0.10000
C115        C  0.40504173  0.39873816  0.09354594     0.20900
C116        C  0.38981075  0.33599941  0.10977026    -0.53900
C117        C  0.40993133  0.35698982  0.08838415     0.10100
C118        C  0.39175755  0.38483837  0.15282024    -0.53500
C119        C  0.41198901  0.40585739  0.13183251     0.10600
H120        H  0.31656116  0.38502163  0.11006191     0.15100
H121        H  0.42159049  0.41591401  0.07639135     0.00900
H122        H  0.39052031  0.30615070  0.10985588     0.15500
H123        H  0.39331102  0.38664696  0.18040310     0.15200
C124        C  0.13577194  0.36096565  0.12907125     0.87000
C125        C  0.11157342  0.38436528  0.15186374    -0.53200
C126        C  0.08951322  0.40635488  0.13361271     0.10000
C127        C  0.09389408  0.40251375  0.09471979     0.20900
C128        C  0.11113024  0.33925836  0.10541787    -0.53900
C129        C  0.08901815  0.36103198  0.08738776     0.10100
C130        C  0.15509613  0.38857812  0.10620668    -0.53500
C131        C  0.13314978  0.41053812  0.08827510     0.10600
H132        H  0.11222311  0.38404176  0.17951326     0.15100
H133        H  0.07604767  0.42033265  0.07974280     0.00900
H134        H  0.11106472  0.30947999  0.10317209     0.15500
H135        H  0.18346272  0.39032117  0.10397327     0.15200
N136        N  0.05256064  0.34778859  0.00149748    -0.36100
N137        N  0.99917098  0.34136305  0.44982732    -0.56600
N138        N  0.44533633  0.34445583  0.00152008    -0.36100
N139        N  0.99919439  0.34137916  0.05319207    -0.56600
C140        C  0.07243072  0.34055695  0.47392283     0.27500
C141        C  0.07244283  0.34055619  0.02906611     0.27500
C142        C  0.42560864  0.33666017  0.47376436     0.27500
C143        C  0.42562125  0.33665784  0.02927798     0.27500
C144        C  0.02752225  0.34186286  0.42920482     0.36100
C145        C  0.47099197  0.33929025  0.42907880     0.36100
C146        C  0.02755800  0.34187930  0.07380277     0.36100
C147        C  0.47102615  0.33930396  0.07395049     0.36100
C148        C  0.10469385  0.32732898  0.48394638    -0.21300
C149        C  0.10470131  0.32732848  0.01903057    -0.21300
C150        C  0.39350659  0.32257568  0.48391055    -0.21300
C151        C  0.39351379  0.32257602  0.01913824    -0.21300
C152        C  0.01754396  0.33639190  0.39585886    -0.22400
C153        C  0.48153954  0.33477379  0.39575922    -0.22400
C154        C  0.01759802  0.33640985  0.10715227    -0.22400
C155        C  0.48159294  0.33479060  0.10726586    -0.22400
C156        C  0.06236443  0.34671369  0.44008011    -0.17700
C157        C  0.06239571  0.34671831  0.06291247    -0.17700
C158        C  0.43590014  0.34225457  0.06342833    -0.17700
C159        C  0.43587342  0.34225603  0.43961224    -0.17700
H160        H  0.12578506  0.31820495  0.46765818     0.15200
H161        H  0.12580105  0.31820561  0.03531097     0.15200
H162        H  0.37263775  0.31262960  0.46757379     0.15200
H163        H  0.37265209  0.31262908  0.03547906     0.15200
H164        H  0.03468118  0.33255280  0.37425672     0.13400
H165        H  0.46486290  0.32971273  0.37397589     0.13400
H166        H  0.03474758  0.33256848  0.12874685     0.13400
H167        H  0.46492883  0.32972765  0.12905510     0.13400
H168        H  0.02892343  0.36184956  0.00150176     0.26700
H169        H  0.46893962  0.35891562  0.00151578     0.26700
C170        C  0.13721230  0.14058438  0.13510190     0.87000
C171        C  0.15924962  0.11705527  0.11054842    -0.53200
C172        C  0.13946751  0.09700324  0.08814483     0.10000
C173        C  0.09957973  0.10225420  0.09271180     0.20900
C174        C  0.11359765  0.16437388  0.11176908    -0.53900
C175        C  0.09375582  0.14407034  0.08930533     0.10100
C176        C  0.11210010  0.11345524  0.15261941    -0.53500
C177        C  0.09236560  0.09330482  0.13057161     0.10600
H178        H  0.18768443  0.11580472  0.11124299     0.15100
H179        H  0.08345214  0.08556389  0.07478833     0.00900
H180        H  0.11269243  0.19417886  0.11292257     0.15500
H181        H  0.10993460  0.11049136  0.18008517     0.15200
N182        N  0.00142531  0.44313027  0.14276739    -0.36100
N183        N  0.44860190  0.99994004  0.14697468    -0.56600
N184        N  0.00207152  0.05600128  0.14229035    -0.36100
N185        N  0.05479437  0.99963107  0.14642191    -0.56600
C186        C  0.47259951  0.42294350  0.15017038     0.27500
C187        C  0.02935846  0.42298627  0.15229982     0.27300
C188        C  0.47410326  0.07739793  0.14883590     0.27500
C189        C  0.03089161  0.07734240  0.14601887     0.27500
C190        C  0.42741292  0.47020679  0.14967548     0.36100
C191        C  0.42809299  0.02956415  0.15193418     0.36100
C192        C  0.07543279  0.47022868  0.15169527     0.36100
C193        C  0.07593583  0.02945792  0.14869844     0.36100
C194        C  0.48212168  0.39047564  0.16579493    -0.21300
C195        C  0.01825822  0.39050207  0.16712048    -0.21300
C196        C  0.48521309  0.11232788  0.15767871    -0.21300
C197        C  0.02128598  0.11227972  0.15595593    -0.21300
C198        C  0.39432079  0.48068066  0.15969765    -0.22400
C199        C  0.39476686  0.01851783  0.16117099    -0.22400
C200        C  0.10878079  0.48139741  0.16058400    -0.22400
C201        C  0.10907709  0.01915556  0.15879575    -0.22400
C202        C  0.43794298  0.43372852  0.14413897    -0.17700
C203        C  0.06457842  0.43342922  0.14838604    -0.17700
C204        C  0.06566276  0.06579003  0.14176829    -0.17700
C205        C  0.43880243  0.06634338  0.14707519    -0.17700
H206        H  0.46477808  0.36956961  0.17608463     0.15200
H207        H  0.03454853  0.36954536  0.17843519     0.15200
H208        H  0.46895510  0.13494885  0.16577199     0.15200
H209        H  0.03860270  0.13480244  0.16272973     0.15200
H210        H  0.37268186  0.46277096  0.16650893     0.13400
H211        H  0.37341356  0.03600652  0.16894685     0.13400
H212        H  0.13014583  0.46403504  0.16858486     0.13400
H213        H  0.13071529  0.03715413  0.16536225     0.13400
H214        H  0.00197905  0.46706916  0.12826776     0.26700
H215        H  0.00149063  0.02991522  0.13164977     0.26700
N216        N  0.14251458  0.44809560  0.00147574    -0.36100
N217        N  0.15117530  0.00395138  0.44998629    -0.56600
N218        N  0.14985421  0.06069120  0.00147257    -0.36100
N219        N  0.15121437  0.00393522  0.05294443    -0.56600
C220        C  0.14782614  0.42669690  0.47397115     0.27500
C221        C  0.14784446  0.42669639  0.02897406     0.27500
C222        C  0.15862996  0.08084123  0.47381773     0.27500
C223        C  0.15865064  0.08083164  0.02913049     0.27500
C224        C  0.15334157  0.47408561  0.42976582     0.36100
C225        C  0.15705144  0.03324660  0.42967074     0.36100
C226        C  0.15339088  0.47408598  0.07317951     0.36100
C227        C  0.15709992  0.03322752  0.07326494     0.36100
C228        C  0.15736184  0.39178687  0.48397932    -0.21300
C229        C  0.15737290  0.39178651  0.01895639    -0.21300
C230        C  0.17448290  0.11333918  0.48388436    -0.21300
C231        C  0.17449548  0.11333349  0.01906887    -0.21300
C232        C  0.16417341  0.48414002  0.39756182    -0.22400
C233        C  0.16637446  0.02191493  0.39744765    -0.22400
C234        C  0.16423721  0.48414582  0.10538024    -0.22400
C235        C  0.16644392  0.02189133  0.10548115    -0.22400
C236        C  0.14532776  0.43798671  0.44002935    -0.17700
C237        C  0.14536982  0.43798607  0.06291882    -0.17700
C238        C  0.15371060  0.07003513  0.06316314    -0.17700
C239        C  0.15367141  0.07005308  0.43978293    -0.17700
H240        H  0.16514647  0.36928987  0.46770689     0.15200
H241        H  0.16516897  0.36928930  0.03522167     0.15200
H242        H  0.18575901  0.13426094  0.46752245     0.15200
H243        H  0.18578151  0.13425063  0.03543351     0.15200
H244        H  0.17078414  0.46598746  0.37677778     0.13400
H245        H  0.17488058  0.03914205  0.37652587     0.13400
H246        H  0.17085780  0.46599689  0.12616290     0.13400
H247        H  0.17496114  0.03911576  0.12640378     0.13400
H248        H  0.13179454  0.47424772  0.00147945     0.26700
H249        H  0.13474298  0.03678424  0.00147327     0.26700
N250        N  0.00471499  0.15584219  0.05382183    -0.36100
N251        N  0.45120195  0.15843687  0.00150579    -0.56600
N252        N  0.00469629  0.15588634  0.44917050    -0.36100
N253        N  0.05819676  0.16182514  0.00148873    -0.56600
C254        C  0.47593325  0.16162987  0.07323210     0.27500
C255        C  0.03310875  0.16391780  0.07321187     0.27500
C256        C  0.47590568  0.16169084  0.42977461     0.27500
C257        C  0.03308164  0.16396883  0.42977608     0.27500
C258        C  0.42994339  0.15943143  0.02905636     0.36100
C259        C  0.42993444  0.15945333  0.47396248     0.36100
C260        C  0.07944967  0.16266352  0.02915956     0.36100
C261        C  0.07943931  0.16267768  0.47381374     0.36100
C262        C  0.48604333  0.17481626  0.10477504    -0.21300
C263        C  0.02226538  0.17626276  0.10476774    -0.21300
C264        C  0.48600151  0.17489711  0.39823701    -0.21300
C265        C  0.02222427  0.17633765  0.39823256    -0.21300
C266        C  0.39570502  0.16469534  0.01901876    -0.22400
C267        C  0.39569933  0.16470805  0.48401097    -0.22400
C268        C  0.11376000  0.16763042  0.01903602    -0.22400
C269        C  0.11375347  0.16763878  0.48393225    -0.22400
C270        C  0.44084399  0.15526235  0.06315548    -0.17700
C271        C  0.06845749  0.15921221  0.06348101    -0.17700
C272        C  0.06843361  0.15924584  0.43949266    -0.17700
C273        C  0.44082210  0.15531077  0.43985771    -0.17700
H274        H  0.46899814  0.18327950  0.12531109     0.15200
H275        H  0.03878790  0.18586941  0.12538552     0.15200
H276        H  0.46894695  0.18337261  0.37771121     0.15200
H277        H  0.03873795  0.18595208  0.37761455     0.15200
H278        H  0.37335416  0.16917438  0.03537594     0.13400
H279        H  0.37334275  0.16919984  0.46766142     0.13400
H280        H  0.13609833  0.17225685  0.03546462     0.13400
H281        H  0.13608550  0.17227300  0.46750116     0.13400
H282        H  0.00507734  0.14235074  0.03050786     0.26700
H283        H  0.00506743  0.14237667  0.47247369     0.26700
C284        C  0.36735210  0.13913487  0.13009486     0.87000
C285        C  0.39115001  0.11450718  0.15208800    -0.53200
C286        C  0.41322168  0.09322691  0.13314501     0.10000
C287        C  0.40936909  0.09888296  0.09441622     0.20900
C288        C  0.39256291  0.16177862  0.10737095    -0.53900
C289        C  0.41491064  0.14061187  0.08865526     0.10100
C290        C  0.34819552  0.11272410  0.10594780    -0.53500
C291        C  0.37011216  0.09145337  0.08738881     0.10600
H292        H  0.39042704  0.11372675  0.17972866     0.15100
H293        H  0.42716625  0.08146220  0.07898550     0.00900
H294        H  0.39241358  0.19159558  0.10586105     0.15500
H295        H  0.31982426  0.11071252  0.10387442     0.15200
N296        N  0.36122450  0.05358210  0.00153889    -0.36100
N297        N  0.35357494  0.49744960  0.05324115    -0.56600
N298        N  0.35359700  0.44122440  0.00154532    -0.36100
N299        N  0.35360082  0.49745628  0.44983328    -0.56600
C300        C  0.35273711  0.07388405  0.02896970     0.27500
C301        C  0.35275873  0.07389340  0.47411094     0.27500
C302        C  0.34864221  0.41981955  0.02924283     0.27500
C303        C  0.34863095  0.41982226  0.47383994     0.27500
C304        C  0.35110584  0.02724217  0.07343551     0.36100
C305        C  0.34739363  0.46808626  0.07335078     0.36100
C306        C  0.35114157  0.02725367  0.42964199     0.36100
C307        C  0.34740402  0.46808929  0.42972886     0.36100
C308        C  0.33743733  0.10644676  0.01904122    -0.21300
C309        C  0.33744972  0.10645153  0.48404080    -0.21300
C310        C  0.33939063  0.38469524  0.01912547    -0.21300
C311        C  0.33938532  0.38469659  0.48395462    -0.21300
C312        C  0.34003270  0.01717574  0.10553809    -0.22400
C313        C  0.33776064  0.47938861  0.10552872    -0.22400
C314        C  0.34006088  0.01718888  0.39753939    -0.22400
C315        C  0.33778934  0.47938494  0.39754382    -0.22400
C316        C  0.35775614  0.06337957  0.06274179    -0.17700
C317        C  0.35778792  0.06339238  0.44033806    -0.17700
C318        C  0.35171956  0.43131018  0.43972079    -0.17700
C319        C  0.35173406  0.43130756  0.06336311    -0.17700
H320        H  0.32638969  0.12734506  0.03536068     0.15200
H321        H  0.32640904  0.12735360  0.46772195     0.15200
H322        H  0.33210439  0.36194892  0.03547151     0.15200
H323        H  0.33209312  0.36195048  0.46760701     0.15200
H324        H  0.33301497  0.03532274  0.12620179     0.13400
H325        H  0.32913837  0.46212409  0.12637930     0.13400
H326        H  0.33304279  0.03533686  0.37687809     0.13400
H327        H  0.32915833  0.46211749  0.37669573     0.13400
H328        H  0.37574184  0.02945094  0.00154148     0.26700
H329        H  0.36414616  0.46750702  0.00154384     0.26700
C330        C  0.34490408  0.33688231  0.34595029    -0.12700
C331        C  0.32785911  0.31835231  0.32649033    -0.14300
C332        C  0.34216528  0.16129009  0.35374071    -0.12700
C333        C  0.31982399  0.17871302  0.33940465    -0.14300
C334        C  0.17961426  0.31799154  0.33998061    -0.12700
C335        C  0.15988508  0.33731786  0.35550865    -0.14300
C336        C  0.34498248  0.33687553  0.15713427    -0.12700
C337        C  0.32793588  0.31834824  0.17659398    -0.14300
C338        C  0.17454892  0.17721577  0.32051114    -0.12700
C339        C  0.15828118  0.16103711  0.34247736    -0.14300
C340        C  0.15997513  0.33732587  0.14743455    -0.12700
C341        C  0.17970163  0.31799511  0.16296297    -0.14300
C342        C  0.34226464  0.16129839  0.14934073    -0.12700
C343        C  0.31992283  0.17872333  0.16367274    -0.14300
C344        C  0.17460816  0.17720113  0.18243936    -0.12700
C345        C  0.15833921  0.16101799  0.16047393    -0.14300
O346        O  0.21477780  0.26724599  0.67671306    -0.79600
O347        O  0.27564444  0.29063075  0.80958169    -0.79600
O348        O  0.19925017  0.30554282  0.78593397    -0.79600
O349        O  0.32291593  0.27204460  0.71757363    -0.79600
O350        O  0.21470257  0.26724885  0.82625797    -0.79700
O351        O  0.27570406  0.29063271  0.69346026    -0.79600
O352        O  0.32287921  0.27204255  0.78551476    -0.79600
O353        O  0.19928883  0.30554079  0.71702466    -0.79600
C354        C  0.19953872  0.29642079  0.68614604     1.10100
C355        C  0.30789859  0.29340427  0.80573820     1.10000
C356        C  0.19947039  0.29642189  0.81681157     1.10100
C357        C  0.30795567  0.29340496  0.69733345     1.10000
O358        O  0.27453356  0.22207722  0.66591674    -0.79600
O359        O  0.22510823  0.19769309  0.79176176    -0.79700
O360        O  0.17719743  0.22958705  0.71659878    -0.79600
O361        O  0.29367369  0.19839268  0.78843943    -0.79600
O362        O  0.27444224  0.22207660  0.83711918    -0.79600
O363        O  0.22515174  0.19769131  0.71121656    -0.79600
O364        O  0.29371622  0.19839193  0.71461313    -0.79600
O365        O  0.17715956  0.22958845  0.78633406    -0.79600
Co366      Co  0.25275220  0.24368244  0.70466488     1.51500
Co367      Co  0.25270399  0.24368216  0.79834772     1.51700
Co368      Co  0.19222953  0.26718437  0.75147455     1.51600
Co369      Co  0.30130365  0.23769066  0.75153186     1.51500
O370        O  0.24625824  0.25965482  0.75150366    -1.41500
C371        C  0.29528203  0.20089710  0.68182530     1.10000
C372        C  0.19271339  0.20124216  0.79703640     1.10100
C373        C  0.19276014  0.20123785  0.70591616     1.10100
C374        C  0.29520403  0.20089432  0.82122991     1.10000
C375        C  0.36644243  0.35895024  0.86932687     0.87000
C376        C  0.39166807  0.38484402  0.85024706    -0.53200
C377        C  0.41191459  0.40586393  0.87122444     0.10000
C378        C  0.40500124  0.39873815  0.90951538     0.20900
C379        C  0.38975977  0.33600010  0.89328861    -0.53900
C380        C  0.40989479  0.35698908  0.91466742     0.10100
C381        C  0.34495971  0.38392404  0.89300604    -0.53500
C382        C  0.36532358  0.40476608  0.91421901     0.10600
H383        H  0.39320033  0.38665213  0.82266343     0.15100
H384        H  0.42156253  0.41591365  0.92666337     0.00900
H385        H  0.39046727  0.30615125  0.89319918     0.15500
H386        H  0.31650760  0.38501814  0.89305003     0.15200
C387        C  0.36727615  0.13914086  0.87296841     0.87000
C388        C  0.34815714  0.11273072  0.89713872    -0.53200
C389        C  0.37010347  0.09147387  0.91568045     0.10000
C390        C  0.40934915  0.09891467  0.90861083     0.20900
C391        C  0.39250658  0.16180045  0.89566484    -0.53900
C392        C  0.41488287  0.14064695  0.91436189     0.10100
C393        C  0.39105559  0.11451497  0.85095521    -0.53500
C394        C  0.41315706  0.09324831  0.86987842     0.10600
H395        H  0.31978886  0.11070733  0.89923763     0.15100
H396        H  0.42717055  0.08150490  0.92402617     0.00900
H397        H  0.39234444  0.19161737  0.89717630     0.15500
H398        H  0.39030007  0.11372678  0.82331539     0.15200
C399        C  0.13568876  0.36095588  0.87388174     0.87000
C400        C  0.15502571  0.38857240  0.89673803    -0.53200
C401        C  0.13308873  0.41053249  0.91467985     0.10000
C402        C  0.09383055  0.40250410  0.90825350     0.20900
C403        C  0.11106440  0.33924876  0.89754593    -0.53900
C404        C  0.08896364  0.36102199  0.91558858     0.10100
C405        C  0.11147649  0.38435144  0.85110065    -0.53500
C406        C  0.08942914  0.40634343  0.86936214     0.10600
H407        H  0.18339354  0.39031857  0.89895831     0.15100
H408        H  0.07599219  0.42032357  0.92323857     0.00900
H409        H  0.11100346  0.30947074  0.89979126     0.15500
H410        H  0.11211111  0.38402723  0.82345088     0.15200
C411        C  0.13715726  0.14060428  0.86785194     0.87000
C412        C  0.11203731  0.11347493  0.85033704    -0.53200
C413        C  0.09230825  0.09332705  0.87238685     0.10000
C414        C  0.09953431  0.10228072  0.91024629     0.20900
C415        C  0.11355155  0.16439770  0.89118994    -0.53900
C416        C  0.09371504  0.14409811  0.91365622     0.10100
C417        C  0.15919987  0.11707455  0.89240210    -0.53500
C418        C  0.13942279  0.09702629  0.91480841     0.10600
H419        H  0.10986278  0.11050955  0.82287150     0.15100
H420        H  0.08341073  0.08559349  0.92817124     0.00900
H421        H  0.11265051  0.19420287  0.89003969     0.15500
H422        H  0.18763421  0.11581956  0.89170218     0.15200
N423        N  0.00134583  0.44312850  0.86023929    -0.36100
N424        N  0.44852525  0.99996648  0.85601904    -0.56600
N425        N  0.00200395  0.05602765  0.86067923    -0.36100
N426        N  0.05471914  0.99965268  0.85654510    -0.56600
C427        C  0.47251565  0.42293547  0.85286239     0.27500
C428        C  0.02927156  0.42297966  0.85069986     0.27500
C429        C  0.47403198  0.07742885  0.85416187     0.27500
C430        C  0.03082312  0.07737095  0.85696032     0.27500
C431        C  0.42733709  0.47020235  0.85333120     0.36100
C432        C  0.42802031  0.02959223  0.85105292     0.36100
C433        C  0.07535247  0.47021961  0.85128350     0.36100
C434        C  0.07586195  0.02947794  0.85425978     0.36100
C435        C  0.48202628  0.39045731  0.83724707    -0.21300
C436        C  0.01816148  0.39048426  0.83590108    -0.21300
C437        C  0.48513791  0.11236703  0.84534690    -0.21300
C438        C  0.02121219  0.11231717  0.84705699    -0.21300
C439        C  0.39424843  0.48067268  0.84329066    -0.22400
C440        C  0.39469153  0.01854585  0.84181719    -0.22400
C441        C  0.10869462  0.48138082  0.84237170    -0.22400
C442        C  0.10899437  0.01916967  0.84414372    -0.22400
C443        C  0.43786430  0.43372821  0.85890071    -0.17700
C444        C  0.06449324  0.43342151  0.85459913    -0.17700
C445        C  0.06559682  0.06581418  0.86119350    -0.17700
C446        C  0.43873129  0.06637133  0.85592486    -0.17700
H447        H  0.46467536  0.36954598  0.82697329     0.15200
H448        H  0.03444402  0.36952087  0.82458638     0.15200
H449        H  0.46887565  0.13499472  0.83727876     0.15200
H450        H  0.03852574  0.13484530  0.84029646     0.15200
H451        H  0.37260625  0.46276120  0.83648721     0.13400
H452        H  0.37333601  0.03603409  0.83404472     0.13400
H453        H  0.13005026  0.46401247  0.83435930     0.13400
H454        H  0.13063044  0.03716469  0.83756732     0.13400
H455        H  0.00190977  0.46707618  0.87472893     0.26700
H456        H  0.00142688  0.02993373  0.87129828     0.26700
C457        C  0.36650928  0.35894375  0.63374651     0.87000
C458        C  0.34501117  0.38392397  0.61008368    -0.53200
C459        C  0.36535961  0.40476753  0.58886234     0.10000
C460        C  0.40504041  0.39873106  0.59354003     0.20900
C461        C  0.38980727  0.33599342  0.60976609    -0.53900
C462        C  0.40992908  0.35698231  0.58837981     0.10100
C463        C  0.39175437  0.38483395  0.65281444    -0.53500
C464        C  0.41198695  0.40585149  0.63182643     0.10600
H465        H  0.31655915  0.38501878  0.61005489     0.15100
H466        H  0.42159021  0.41590578  0.57638535     0.00900
H467        H  0.39051604  0.30614459  0.60985279     0.15500
H468        H  0.39330703  0.38664380  0.68039733     0.15200
C469        C  0.13577021  0.36096346  0.62907098     0.87000
C470        C  0.11157245  0.38436377  0.65186349    -0.53200
C471        C  0.08951127  0.40635215  0.63361236     0.10000
C472        C  0.09389038  0.40250911  0.59471946     0.20900
C473        C  0.11112783  0.33925450  0.60541969    -0.53900
C474        C  0.08901459  0.36102676  0.58738964     0.10100
C475        C  0.15509311  0.38857507  0.60620460    -0.53500
C476        C  0.13314576  0.41053393  0.58827305     0.10600
H477        H  0.11222311  0.38404130  0.67951299     0.15100
H478        H  0.07604308  0.42032701  0.57974240     0.00900
H479        H  0.11106320  0.30947612  0.60317469     0.15500
H480        H  0.18345959  0.39031905  0.60397063     0.15200
N481        N  0.05256135  0.34778863  0.50149876    -0.36100
N482        N  0.99916806  0.34135405  0.94982803    -0.56600
N483        N  0.44533681  0.34445526  0.50151766    -0.36100
N484        N  0.99919293  0.34136956  0.55319105    -0.56600
C485        C  0.07242849  0.34055314  0.97392152     0.27500
C486        C  0.07244225  0.34055279  0.52906740     0.27500
C487        C  0.42560674  0.33665804  0.97376836     0.27500
C488        C  0.42562107  0.33665241  0.52927392     0.27500
C489        C  0.02751863  0.34185250  0.92920464     0.36100
C490        C  0.47098827  0.33927986  0.92908062     0.36100
C491        C  0.02755583  0.34186880  0.57380274     0.36100
C492        C  0.47102387  0.33929273  0.57394843     0.36100
C493        C  0.10469203  0.32732631  0.98394495    -0.21300
C494        C  0.10470145  0.32732686  0.51903202    -0.21300
C495        C  0.39350436  0.32257682  0.98391727    -0.21300
C496        C  0.39351463  0.32257030  0.51913152    -0.21300
C497        C  0.01753921  0.33637880  0.89585932    -0.22400
C498        C  0.48153470  0.33476069  0.89576095    -0.22400
C499        C  0.01759471  0.33639668  0.60715158    -0.22400
C500        C  0.48158951  0.33477700  0.60726390    -0.22400
C501        C  0.06236093  0.34670638  0.94007868    -0.17700
C502        C  0.06239366  0.34671127  0.56291381    -0.17700
C503        C  0.43589831  0.34224543  0.56342515    -0.17700
C504        C  0.43587027  0.34224903  0.93961520    -0.17700
H505        H  0.12578249  0.31820034  0.96765663     0.15200
H506        H  0.12580052  0.31820247  0.53531246     0.15200
H507        H  0.37263440  0.31262981  0.96758232     0.15200
H508        H  0.37265270  0.31262037  0.53547055     0.15200
H509        H  0.03467565  0.33253910  0.87425666     0.13400
H510        H  0.46485727  0.32969913  0.87397827     0.13400
H511        H  0.03474352  0.33255486  0.62874666     0.13400
H512        H  0.46492467  0.32971320  0.62905244     0.13400
H513        H  0.02892405  0.36184937  0.50150388     0.26700
H514        H  0.46893949  0.35891627  0.50151600     0.26700
C515        C  0.13720941  0.14058200  0.63510275     0.87000
C516        C  0.15924681  0.11705247  0.61054969    -0.53200
C517        C  0.13946488  0.09700097  0.58814560     0.10000
C518        C  0.09957712  0.10225261  0.59271182     0.20900
C519        C  0.11359578  0.16437198  0.61176952    -0.53900
C520        C  0.09375418  0.14406881  0.58930540     0.10100
C521        C  0.11209621  0.11345353  0.65261970    -0.53500
C522        C  0.09236182  0.09330359  0.63057147     0.10600
H523        H  0.18768161  0.11580155  0.61124464     0.15100
H524        H  0.08344968  0.08556265  0.57478796     0.00900
H525        H  0.11269080  0.19417697  0.61292318     0.15500
H526        H  0.10993019  0.11048949  0.68008546     0.15200
N527        N  0.00142303  0.44312622  0.64276464    -0.36100
N528        N  0.44859955  0.99993693  0.64697821    -0.56600
N529        N  0.00206814  0.05599865  0.64229299    -0.36100
N530        N  0.05479249  0.99962897  0.64641934    -0.56600
C531        C  0.47259720  0.42293822  0.65016446     0.27500
C532        C  0.02935599  0.42298208  0.65229693     0.27300
C533        C  0.47409992  0.07739469  0.64884027     0.27500
C534        C  0.03088820  0.07734004  0.64602057     0.27500
C535        C  0.42741035  0.47020147  0.64966711     0.36100
C536        C  0.42808996  0.02956060  0.65193756     0.36100
C537        C  0.07542975  0.47022534  0.65169637     0.36100
C538        C  0.07593341  0.02945614  0.64869589     0.36100
C539        C  0.48211920  0.39046913  0.66578690    -0.21300
C540        C  0.01825565  0.39049619  0.66711419    -0.21300
C541        C  0.48520972  0.11232450  0.65768361    -0.21300
C542        C  0.02128256  0.11227697  0.65595903    -0.21300
C543        C  0.39431852  0.48067501  0.65969028    -0.22400
C544        C  0.39476372  0.01851342  0.66117310    -0.22400
C545        C  0.10877742  0.48139421  0.66058623    -0.22400
C546        C  0.10907520  0.01915435  0.65879207    -0.22400
C547        C  0.43794075  0.43372303  0.64413226    -0.17700
C548        C  0.06457591  0.43342586  0.64838551    -0.17700
C549        C  0.06565935  0.06578828  0.64176766    -0.17700
C550        C  0.43879904  0.06634012  0.64707944    -0.17700
H551        H  0.46477550  0.36956208  0.67607458     0.15200
H552        H  0.03454583  0.36953899  0.67842827     0.15200
H553        H  0.46895182  0.13494509  0.66577780     0.15200
H554        H  0.03859919  0.13479978  0.66273237     0.15200
H555        H  0.37268022  0.46276504  0.66650334     0.13400
H556        H  0.37340981  0.03600160  0.66894860     0.13400
H557        H  0.13014235  0.46403195  0.66858748     0.13400
H558        H  0.13071316  0.03715329  0.66535857     0.13400
H559        H  0.00197732  0.46706626  0.62826660     0.26700
H560        H  0.00148711  0.02991292  0.63165168     0.26700
N561        N  0.14251528  0.44809526  0.50147471    -0.36100
N562        N  0.15117121  0.00395029  0.94998677    -0.56600
N563        N  0.14985384  0.06069120  0.50147254    -0.36100
N564        N  0.15121096  0.00393401  0.55294380    -0.56600
C565        C  0.14782208  0.42669565  0.97397244     0.27500
C566        C  0.14784234  0.42669481  0.52897271     0.27500
C567        C  0.15862907  0.08084072  0.97381705     0.27500
C568        C  0.15864926  0.08083092  0.52913117     0.27500
C569        C  0.15333543  0.47408262  0.92976560     0.36100
C570        C  0.15704962  0.03324500  0.92967126     0.36100
C571        C  0.15338575  0.47408278  0.57317948     0.36100
C572        C  0.15709770  0.03322583  0.57326448     0.36100
C573        C  0.15735844  0.39178596  0.98398107    -0.21300
C574        C  0.15737255  0.39178564  0.51895460    -0.21300
C575        C  0.17448224  0.11333901  0.98388242    -0.21300
C576        C  0.17449483  0.11333283  0.51907080    -0.21300
C577        C  0.16416619  0.48413595  0.89756099    -0.22400
C578        C  0.16637580  0.02191265  0.89744926    -0.22400
C579        C  0.16423140  0.48414155  0.60538067    -0.22400
C580        C  0.16644378  0.02188908  0.60547993    -0.22400
C581        C  0.14532142  0.43798412  0.94003038    -0.17700
C582        C  0.14536494  0.43798323  0.56291760    -0.17700
C583        C  0.15370815  0.07003355  0.56316344    -0.17700
C584        C  0.15366953  0.07005164  0.93978264    -0.17700
H585        H  0.16514133  0.36928823  0.96770887     0.15200
H586        H  0.16516747  0.36928781  0.53521971     0.15200
H587        H  0.18575760  0.13426038  0.96751970     0.15200
H588        H  0.18578049  0.13424938  0.53543626     0.15200
H589        H  0.17077559  0.46598267  0.87677703     0.13400
H590        H  0.17488398  0.03913927  0.87652788     0.13400
H591        H  0.17085123  0.46599188  0.62616307     0.13400
H592        H  0.17496215  0.03911312  0.62640247     0.13400
H593        H  0.13179483  0.47424727  0.50147819     0.26700
H594        H  0.13474246  0.03678427  0.50147221     0.26700
N595        N  0.00471370  0.15583890  0.55382295    -0.36100
N596        N  0.45120196  0.15843398  0.50150809    -0.56600
N597        N  0.00469500  0.15588524  0.94916947    -0.36100
N598        N  0.05819665  0.16182545  0.50148892    -0.56600
C599        C  0.47593202  0.16162449  0.57323398     0.27500
C600        C  0.03310742  0.16391541  0.57321260     0.27500
C601        C  0.47590468  0.16168782  0.92977256     0.27500
C602        C  0.03308061  0.16396630  0.92977506     0.27500
C603        C  0.42994276  0.15942743  0.52905830     0.36100
C604        C  0.42993375  0.15945400  0.97396049     0.36100
C605        C  0.07944893  0.16266335  0.52916016     0.36100
C606        C  0.07943875  0.16267730  0.97381317     0.36100
C607        C  0.48604210  0.17481045  0.60477704    -0.21300
C608        C  0.02226407  0.17625872  0.60476906    -0.21300
C609        C  0.48600099  0.17489117  0.89823410    -0.21300
C610        C  0.02222375  0.17633202  0.89823032    -0.21300
C611        C  0.39570480  0.16469278  0.51902033    -0.22400
C612        C  0.39569881  0.16470883  0.98400938    -0.22400
C613        C  0.11375958  0.16763015  0.51903733    -0.22400
C614        C  0.11375310  0.16763880  0.98393099    -0.22400
C615        C  0.44084270  0.15525731  0.56315749    -0.17700
C616        C  0.06845619  0.15921113  0.56348138    -0.17700
C617        C  0.06843255  0.15924451  0.93949237    -0.17700
C618        C  0.44082087  0.15530945  0.93985569    -0.17700
H619        H  0.46899698  0.18327273  0.62531345     0.15200
H620        H  0.03878654  0.18586547  0.62538677     0.15200
H621        H  0.46894683  0.18336499  0.87770747     0.15200
H622        H  0.03873774  0.18594495  0.87761208     0.15200
H623        H  0.37335377  0.16917190  0.53537733     0.13400
H624        H  0.37334187  0.16919939  0.96766003     0.13400
H625        H  0.13609751  0.17225612  0.53546634     0.13400
H626        H  0.13608475  0.17227306  0.96749940     0.13400
H627        H  0.00507664  0.14234840  0.53050848     0.26700
H628        H  0.00506612  0.14237771  0.97247372     0.26700
C629        C  0.36734933  0.13913207  0.63009659     0.87000
C630        C  0.39114662  0.11450450  0.65209066    -0.53200
C631        C  0.41321851  0.09322360  0.63314841     0.10000
C632        C  0.40936665  0.09887896  0.59441942     0.20900
C633        C  0.39256081  0.16177509  0.60737255    -0.53900
C634        C  0.41490869  0.14060770  0.58865748     0.10100
C635        C  0.34819298  0.11272103  0.60594976    -0.53500
C636        C  0.37010976  0.09144967  0.58739161     0.10600
H637        H  0.39042302  0.11372460  0.67973123     0.15100
H638        H  0.42716383  0.08145761  0.57898931     0.00900
H639        H  0.39241165  0.19159200  0.60586206     0.15500
H640        H  0.31982175  0.11070999  0.60387567     0.15200
N641        N  0.36122414  0.05358065  0.50154119    -0.36100
N642        N  0.35357018  0.49744656  0.55323635    -0.56600
N643        N  0.35359818  0.44122466  0.50153923    -0.36100
N644        N  0.35359569  0.49745255  0.94983805    -0.56600
C645        C  0.35273593  0.07388185  0.52897212     0.27500
C646        C  0.35275792  0.07389408  0.97410852     0.27500
C647        C  0.34864424  0.41981764  0.52923554     0.27500
C648        C  0.34862842  0.41982034  0.97384726     0.27500
C649        C  0.35110322  0.02723900  0.57343721     0.36100
C650        C  0.34739162  0.46808201  0.57334542     0.36100
C651        C  0.35113973  0.02725370  0.92964009     0.36100
C652        C  0.34739990  0.46808467  0.92973437     0.36100
C653        C  0.33743690  0.10644501  0.51904386    -0.21300
C654        C  0.33744899  0.10645238  0.98403813    -0.21300
C655        C  0.33939470  0.38469350  0.51911607    -0.21300
C656        C  0.33938101  0.38469590  0.98396398    -0.21300
C657        C  0.34002960  0.01717205  0.60553950    -0.22400
C658        C  0.33775755  0.47938283  0.60552354    -0.22400
C659        C  0.34005817  0.01718847  0.89753788    -0.22400
C660        C  0.33778391  0.47937895  0.89754931    -0.22400
C661        C  0.35775389  0.06337653  0.56274412    -0.17700
C662        C  0.35778630  0.06339244  0.94033570    -0.17700
C663        C  0.35171640  0.43130607  0.93972746    -0.17700
C664        C  0.35173445  0.43130377  0.56335653    -0.17700
H665        H  0.32638896  0.12734312  0.53536346     0.15200
H666        H  0.32640767  0.12735390  0.96771920     0.15200
H667        H  0.33210936  0.36194565  0.53546076     0.15200
H668        H  0.33208742  0.36194917  0.96761776     0.15200
H669        H  0.33301140  0.03531873  0.62620328     0.13400
H670        H  0.32913673  0.46211715  0.62637379     0.13400
H671        H  0.33303928  0.03533619  0.87687654     0.13400
H672        H  0.32915320  0.46211049  0.87670181     0.13400
H673        H  0.37574133  0.02944936  0.50154381     0.26700
H674        H  0.36414586  0.46750785  0.50153907     0.26700
C675        C  0.34489893  0.33688033  0.84595419    -0.12700
C676        C  0.32785408  0.31835164  0.82649290    -0.14300
C677        C  0.34216232  0.16129066  0.85373977    -0.12700
C678        C  0.31982049  0.17871350  0.83940433    -0.14300
C679        C  0.17961074  0.31799177  0.83997905    -0.12700
C680        C  0.15988162  0.33731787  0.85550723    -0.14300
C681        C  0.34497783  0.33687274  0.65712939    -0.12700
C682        C  0.32793103  0.31834657  0.67659002    -0.14300
C683        C  0.17454563  0.17721453  0.82051042    -0.12700
C684        C  0.15827847  0.16103550  0.84247672    -0.14300
C685        C  0.15997423  0.33732492  0.64743402    -0.12700
C686        C  0.17970056  0.31799398  0.66296211    -0.14300
C687        C  0.34226137  0.16129605  0.64934156    -0.12700
C688        C  0.31991913  0.17872101  0.66367302    -0.14300
C689        C  0.17460470  0.17719849  0.68244058    -0.12700
C690        C  0.15833608  0.16101521  0.66047507    -0.14300
O691        O  0.21478090  0.76724449  0.17670902    -0.79600
O692        O  0.27565343  0.79063915  0.30956950    -0.79600
O693        O  0.19926269  0.80554954  0.28592480    -0.79600
O694        O  0.32292011  0.77204026  0.21756487    -0.79600
O695        O  0.21471310  0.76725903  0.32625201    -0.79700
O696        O  0.27570882  0.79063123  0.19345225    -0.79600
O697        O  0.32288666  0.77204081  0.28550748    -0.79600
O698        O  0.19929405  0.80554264  0.21701824    -0.79600
C699        C  0.19954372  0.79642019  0.18614035     1.10100
C700        C  0.30790797  0.79340829  0.30572752     1.10000
C701        C  0.19948234  0.79643154  0.31680262     1.10100
C702        C  0.30796096  0.79340023  0.19732363     1.10000
O703        O  0.27452749  0.72207795  0.16590925    -0.79600
O704        O  0.22511377  0.69769943  0.29176356    -0.79700
O705        O  0.17719915  0.72959170  0.21659851    -0.79600
O706        O  0.29367305  0.69839400  0.28843272    -0.79600
O707        O  0.27445349  0.72208596  0.33711365    -0.79600
O708        O  0.22515157  0.69769363  0.21121392    -0.79600
O709        O  0.29371287  0.69839237  0.21460517    -0.79600
O710        O  0.17716584  0.72959547  0.28633407    -0.79600
Co711      Co  0.25275457  0.74368281  0.20465970     1.51500
Co712      Co  0.25271185  0.74368903  0.29834227     1.51700
Co713      Co  0.19223554  0.76718900  0.25147080     1.51600
Co714      Co  0.30130661  0.73768958  0.25152452     1.51500
O715        O  0.24626321  0.75965728  0.25149752    -1.41500
C716        C  0.29527638  0.70089827  0.18181714     1.10000
C717        C  0.19271896  0.70124936  0.29703834     1.10100
C718        C  0.19276020  0.70124284  0.20591378     1.10100
C719        C  0.29520905  0.70089812  0.32122266     1.10000
C720        C  0.36644852  0.85896491  0.36931322     0.87000
C721        C  0.39166708  0.88486415  0.35023105    -0.53200
C722        C  0.41191313  0.90588699  0.37120617     0.10000
C723        C  0.40500627  0.89875889  0.40949817     0.20900
C724        C  0.38977313  0.83601885  0.39327180    -0.53900
C725        C  0.40990696  0.85701070  0.41464939     0.10100
C726        C  0.34496472  0.88393405  0.39299640    -0.53500
C727        C  0.36532833  0.90477909  0.41420770     0.10600
H728        H  0.39319686  0.88667172  0.32264719     0.15100
H729        H  0.42156725  0.91593681  0.42664442     0.00900
H730        H  0.39048467  0.80617012  0.39318252     0.15500
H731        H  0.31651244  0.88502266  0.39304437     0.15200
C732        C  0.36727493  0.63912899  0.37295132     0.87000
C733        C  0.34815271  0.61272307  0.39712366    -0.53200
C734        C  0.37009625  0.59146530  0.41566788     0.10000
C735        C  0.40934293  0.59890190  0.40859817     0.20900
C736        C  0.39250702  0.66178800  0.39564519    -0.53900
C737        C  0.41488060  0.64063477  0.41434440     0.10100
C738        C  0.39105234  0.61449834  0.35094038    -0.53500
C739        C  0.41315116  0.59323095  0.36986628     0.10600
H740        H  0.31978421  0.61070312  0.39922190     0.15100
H741        H  0.42716267  0.58149242  0.42401559     0.00900
H742        H  0.39234756  0.69160513  0.39715409     0.15500
H743        H  0.39029868  0.61370893  0.32330046     0.15200
C744        C  0.13569425  0.86096356  0.37386148     0.87000
C745        C  0.15502989  0.88858401  0.39671373    -0.53200
C746        C  0.13309220  0.91054011  0.41465801     0.10000
C747        C  0.09383391  0.90250316  0.40823845     0.20900
C748        C  0.11107815  0.83925147  0.39752909    -0.53900
C749        C  0.08897625  0.86101965  0.41557477     0.10100
C750        C  0.11147449  0.88435361  0.35108306    -0.53500
C751        C  0.08942556  0.90634136  0.36934741     0.10600
H752        H  0.18339778  0.89033371  0.39893183     0.15100
H753        H  0.07599474  0.92031908  0.42322624     0.00900
H754        H  0.11102187  0.80947326  0.39977286     0.15500
H755        H  0.11210788  0.88403179  0.32343323     0.15200
C756        C  0.13715456  0.64060810  0.36784888     0.87000
C757        C  0.11203543  0.61347785  0.35033280    -0.53200
C758        C  0.09230408  0.59333046  0.37238165     0.10000
C759        C  0.09952721  0.60228621  0.41024147     0.20900
C760        C  0.11354710  0.66440237  0.39118449    -0.53900
C761        C  0.09370863  0.64410388  0.41365002     0.10100
C762        C  0.15919445  0.61707884  0.39240194    -0.53500
C763        C  0.13941513  0.59703163  0.41480736     0.10600
H764        H  0.10986370  0.61051118  0.32286710     0.15100
H765        H  0.08340203  0.58560002  0.42816586     0.00900
H766        H  0.11264682  0.69420756  0.39003372     0.15500
H767        H  0.18762890  0.61582324  0.39170441     0.15200
N768        N  0.00134581  0.94314066  0.36021952    -0.36100
N769        N  0.44852795  0.49994974  0.35602351    -0.56600
N770        N  0.00200181  0.55601940  0.36067370    -0.36100
N771        N  0.05472237  0.49965174  0.35654828    -0.56600
C772        C  0.47251356  0.92295273  0.35283896     0.27500
C773        C  0.02926985  0.92298831  0.35068163     0.27500
C774        C  0.47402735  0.57741577  0.35415288     0.27500
C775        C  0.03081866  0.57736694  0.35695648     0.27500
C776        C  0.42734030  0.97022515  0.35331382     0.36100
C777        C  0.42801979  0.52957240  0.35105372     0.36100
C778        C  0.07535621  0.97022256  0.35128085     0.36100
C779        C  0.07586107  0.52947931  0.35425247     0.36100
C780        C  0.48202111  0.89047419  0.33722245    -0.21300
C781        C  0.01815659  0.89049554  0.33587979    -0.21300
C782        C  0.48512953  0.61235513  0.34533732    -0.21300
C783        C  0.02120377  0.61231095  0.34705082    -0.21300
C784        C  0.39425408  0.98070120  0.34327067    -0.22400
C785        C  0.39469067  0.51852058  0.34182477    -0.22400
C786        C  0.10870314  0.98138132  0.34238377    -0.22400
C787        C  0.10899046  0.51917396  0.34412402    -0.22400
C788        C  0.43786351  0.93374898  0.35887923    -0.17700
C789        C  0.06449251  0.93342477  0.35458750    -0.17700
C790        C  0.06559411  0.56581466  0.36118820    -0.17700
C791        C  0.43872758  0.56635406  0.35591647    -0.17700
H792        H  0.46466817  0.86956551  0.32694714     0.15200
H793        H  0.03443718  0.86952992  0.32456602     0.15200
H794        H  0.46886495  0.63498000  0.33726680     0.15200
H795        H  0.03851495  0.63484076  0.34028953     0.15200
H796        H  0.37261099  0.96279354  0.33646154     0.13400
H797        H  0.37333291  0.53600499  0.33405078     0.13400
H798        H  0.13005980  0.96401154  0.33437697     0.13400
H799        H  0.13062269  0.53717066  0.33753940     0.13400
H800        H  0.00191141  0.96708583  0.37471245     0.26700
H801        H  0.00142718  0.52992580  0.37129341     0.26700
C802        C  0.36651810  0.85893666  0.13373699     0.87000
C803        C  0.34501872  0.88391559  0.11007443    -0.53200
C804        C  0.36536642  0.90476476  0.08885724     0.10000
C805        C  0.40504768  0.89873583  0.09353910     0.20900
C806        C  0.38982277  0.83599345  0.10975612    -0.53900
C807        C  0.40994355  0.85698865  0.08837350     0.10100
C808        C  0.39175643  0.88482894  0.15281065    -0.53500
C809        C  0.41198788  0.90585307  0.13182763     0.10600
H810        H  0.31656652  0.88500610  0.11004327     0.15100
H811        H  0.42159652  0.91591594  0.07638818     0.00900
H812        H  0.39053445  0.80614476  0.10983814     0.15500
H813        H  0.39330722  0.88663347  0.18039394     0.15200
C814        C  0.13577759  0.86094818  0.12905385     0.87000
C815        C  0.11157175  0.88434348  0.15184194    -0.53200
C816        C  0.08951060  0.90632750  0.13358680     0.10000
C817        C  0.09389767  0.90248535  0.09469487     0.20900
C818        C  0.11114410  0.83923401  0.10539816    -0.53900
C819        C  0.08903055  0.86100188  0.08736425     0.10100
C820        C  0.15510063  0.88856327  0.10619178    -0.53500
C821        C  0.13315316  0.91051832  0.08825691     0.10600
H822        H  0.11221967  0.88402405  0.17949158     0.15100
H823        H  0.07605030  0.92030007  0.07971467     0.00900
H824        H  0.11108321  0.80945545  0.10315551     0.15500
H825        H  0.18346734  0.89031214  0.10396277     0.15200
N826        N  0.05257582  0.84776220  0.00147931    -0.36100
N827        N  0.99918068  0.84135660  0.44981194    -0.56600
N828        N  0.44534723  0.84448034  0.00150399    -0.36100
N829        N  0.99920562  0.84135881  0.05317292    -0.56600
C830        C  0.07244129  0.84052772  0.47390214     0.27500
C831        C  0.07245459  0.84051603  0.02904648     0.27500
C832        C  0.42561971  0.83668020  0.47375125     0.27500
C833        C  0.42563308  0.83667314  0.02926083     0.27500
C834        C  0.02753110  0.84185261  0.42918804     0.36100
C835        C  0.47100060  0.83929753  0.42906363     0.36100
C836        C  0.02757026  0.84184933  0.07378275     0.36100
C837        C  0.47103769  0.83929515  0.07393314     0.36100
C838        C  0.10469980  0.82728394  0.48392248    -0.21300
C839        C  0.10470842  0.82727656  0.01900940    -0.21300
C840        C  0.39352046  0.82258916  0.48389773    -0.21300
C841        C  0.39352868  0.82258571  0.01911891    -0.21300
C842        C  0.01755039  0.83639124  0.39584150    -0.22400
C843        C  0.48154583  0.83478325  0.39574314    -0.22400
C844        C  0.01761007  0.83638399  0.10713270    -0.22400
C845        C  0.48160468  0.83477696  0.10724777    -0.22400
C846        C  0.06237443  0.84669634  0.44006184    -0.17700
C847        C  0.06240890  0.84668079  0.06289231    -0.17700
C848        C  0.43591212  0.84225909  0.06341271    -0.17700
C849        C  0.43588340  0.84227345  0.43959846    -0.17700
H850        H  0.12578757  0.81815528  0.46763220     0.15200
H851        H  0.12580544  0.81814440  0.03528882     0.15200
H852        H  0.37265384  0.81263758  0.46756103     0.15200
H853        H  0.37266974  0.81262938  0.03545821     0.15200
H854        H  0.03468591  0.83255338  0.37423781     0.13400
H855        H  0.46486708  0.82973055  0.37395983     0.13400
H856        H  0.03475945  0.83253892  0.12872692     0.13400
H857        H  0.46494011  0.82971932  0.12903756     0.13400
H858        H  0.02894407  0.86183352  0.00148621     0.26700
H859        H  0.46895045  0.85894129  0.00150161     0.26700
C860        C  0.13719900  0.64060583  0.13509558     0.87000
C861        C  0.15923515  0.61707991  0.11053920    -0.53200
C862        C  0.13945247  0.59702803  0.08813653     0.10000
C863        C  0.09956462  0.60227525  0.09270751     0.20900
C864        C  0.11358040  0.66439518  0.11176581    -0.53900
C865        C  0.09373772  0.64409086  0.08930277     0.10100
C866        C  0.11209002  0.61347457  0.15261433    -0.53500
C867        C  0.09235433  0.59332410  0.13056785     0.10600
H868        H  0.18767003  0.61582907  0.11123290     0.15100
H869        H  0.08343670  0.58558422  0.07478495     0.00900
H870        H  0.11267457  0.69420019  0.11291965     0.15500
H871        H  0.10992688  0.61051000  0.18008018     0.15200
N872        N  0.00142551  0.94311538  0.14275482    -0.36100
N873        N  0.44859710  0.49995060  0.14696725    -0.56600
N874        N  0.00206178  0.55601680  0.14228054    -0.36100
N875        N  0.05478786  0.49965215  0.14643798    -0.56600
C876        C  0.47259991  0.92293041  0.15016217     0.27500
C877        C  0.02935896  0.92296673  0.15227762     0.27300
C878        C  0.47409163  0.57741028  0.14882673     0.27500
C879        C  0.03087973  0.57736042  0.14601117     0.27500
C880        C  0.42741739  0.97019730  0.14968994     0.36100
C881        C  0.42808355  0.52957323  0.15191583     0.36100
C882        C  0.07543853  0.97020399  0.15166421     0.36100
C883        C  0.07592587  0.52948172  0.14871354     0.36100
C884        C  0.48212271  0.89045915  0.16578007    -0.21300
C885        C  0.01825942  0.89048142  0.16709685    -0.21300
C886        C  0.48519819  0.61234076  0.15767206    -0.21300
C887        C  0.02127111  0.61229632  0.15594962    -0.21300
C888        C  0.39433073  0.98067265  0.15972838    -0.22400
C889        C  0.39475380  0.51852538  0.16113809    -0.22400
C890        C  0.10879092  0.98136671  0.16054335    -0.22400
C891        C  0.10906415  0.51918592  0.15882658    -0.22400
C892        C  0.43794316  0.93371960  0.14414065    -0.17700
C893        C  0.06457861  0.93340633  0.14835593    -0.17700
C894        C  0.06565190  0.56580986  0.14176674    -0.17700
C895        C  0.43879195  0.56635305  0.14706154    -0.17700
H896        H  0.46477948  0.86955356  0.17607138     0.15200
H897        H  0.03455043  0.86952175  0.17840564     0.15200
H898        H  0.46893810  0.63495971  0.16576617     0.15200
H899        H  0.03858591  0.63481981  0.16272577     0.15200
H900        H  0.37269292  0.96276403  0.16654592     0.13400
H901        H  0.37339648  0.53601308  0.16890523     0.13400
H902        H  0.13015615  0.96399994  0.16853491     0.13400
H903        H  0.13069897  0.53718825  0.16539458     0.13400
H904        H  0.00197775  0.96705634  0.12825813     0.26700
H905        H  0.00148415  0.52993088  0.13163899     0.26700
N906        N  0.14251716  0.94808665  0.00146131    -0.36100
N907        N  0.15116645  0.50395557  0.44999446    -0.56600
N908        N  0.14984255  0.56070188  0.00147138    -0.36100
N909        N  0.15120523  0.50395268  0.05295079    -0.56600
C910        C  0.14781785  0.92668932  0.47395359     0.27500
C911        C  0.14783806  0.92668114  0.02895672     0.27500
C912        C  0.15862360  0.58084651  0.47381621     0.27500
C913        C  0.15864361  0.58084406  0.02912678     0.27500
C914        C  0.15335297  0.97408353  0.42975548     0.36100
C915        C  0.15703359  0.53324868  0.42967359     0.36100
C916        C  0.15340726  0.97406406  0.07316639     0.36100
C917        C  0.15707942  0.53324916  0.07326917     0.36100
C918        C  0.15733876  0.89177318  0.48395735    -0.21300
C919        C  0.15735057  0.89176784  0.01893462    -0.21300
C920        C  0.17448565  0.61334104  0.48387944    -0.21300
C921        C  0.17449764  0.61334000  0.01906154    -0.21300
C922        C  0.16419579  0.98414085  0.39755549    -0.22400
C923        C  0.16634858  0.52191396  0.39744945    -0.22400
C924        C  0.16426935  0.98411683  0.10536428    -0.22400
C925        C  0.16640942  0.52192006  0.10549126    -0.22400
C926        C  0.14532588  0.93798549  0.44001326    -0.17700
C927        C  0.14537302  0.93796783  0.06290276    -0.17700
C928        C  0.15369572  0.57005481  0.06316020    -0.17700
C929        C  0.15365917  0.57005651  0.43978290    -0.17700
H930        H  0.16511448  0.86927526  0.46768208     0.15200
H931        H  0.16513848  0.86926520  0.03519716     0.15200
H932        H  0.18576550  0.63425867  0.46751539     0.15200
H933        H  0.18578699  0.63425738  0.03542378     0.15200
H934        H  0.17080877  0.96599049  0.37677031     0.13400
H935        H  0.17485001  0.53913915  0.37652465     0.13400
H936        H  0.17089583  0.96596365  0.12614210     0.13400
H937        H  0.17491885  0.53914923  0.12641346     0.13400
H938        H  0.13180817  0.97424351  0.00146860     0.26700
H939        H  0.13472549  0.53679858  0.00147505     0.26700
N940        N  0.00469912  0.65585487  0.05381343    -0.36100
N941        N  0.45119006  0.65843688  0.00149315    -0.56600
N942        N  0.00468822  0.65588984  0.44915663    -0.36100
N943        N  0.05818219  0.66184018  0.00148176    -0.56600
C944        C  0.47591541  0.66163892  0.07322169     0.27500
C945        C  0.03309080  0.66393454  0.07320482     0.27500
C946        C  0.47589915  0.66168531  0.42975673     0.27500
C947        C  0.03307433  0.66397310  0.42976425     0.27500
C948        C  0.42992962  0.65943312  0.02904220     0.36100
C949        C  0.42992529  0.65944987  0.47394115     0.36100
C950        C  0.07943410  0.66267391  0.02915385     0.36100
C951        C  0.07942798  0.66268311  0.47380711     0.36100
C952        C  0.48602186  0.67482653  0.10476540    -0.21300
C953        C  0.02224398  0.67627784  0.10476026    -0.21300
C954        C  0.48599628  0.67488689  0.39821778    -0.21300
C955        C  0.02221889  0.67633334  0.39821705    -0.21300
C956        C  0.39569142  0.66469192  0.01900203    -0.22400
C957        C  0.39568859  0.66470130  0.48398575    -0.22400
C958        C  0.11374646  0.66762558  0.01903102    -0.22400
C959        C  0.11374272  0.66763140  0.48392843    -0.22400
C960        C  0.44082774  0.65526692  0.06314221    -0.17700
C961        C  0.06844041  0.65923047  0.06347604    -0.17700
C962        C  0.06842516  0.65925202  0.43948458    -0.17700
C963        C  0.44081610  0.65530065  0.43983818    -0.17700
H964        H  0.46897442  0.68328714  0.12530047     0.15200
H965        H  0.03876411  0.68588573  0.12537930     0.15200
H966        H  0.46894269  0.68335511  0.37768861     0.15200
H967        H  0.03873363  0.68594492  0.37759875     0.15200
H968        H  0.37333917  0.66917058  0.03535748     0.13400
H969        H  0.37333302  0.66918720  0.46763357     0.13400
H970        H  0.13608551  0.67224482  0.03546011     0.13400
H971        H  0.13607744  0.67225659  0.46749890     0.13400
H972        H  0.00506453  0.64236246  0.03050006     0.26700
H973        H  0.00505889  0.64238352  0.47246148     0.26700
C974        C  0.36733907  0.63913954  0.13008365     0.87000
C975        C  0.39114010  0.61451517  0.15207601    -0.53200
C976        C  0.41321033  0.59323491  0.13313188     0.10000
C977        C  0.40935298  0.59888723  0.09440314     0.20900
C978        C  0.39254638  0.66178307  0.10735639    -0.53900
C979        C  0.41489314  0.64061603  0.08864019     0.10100
C980        C  0.34818028  0.61272669  0.10594062    -0.53500
C981        C  0.37009507  0.59145583  0.08738028     0.10600
H982        H  0.39042017  0.61373666  0.17971678     0.15100
H983        H  0.42714911  0.58146593  0.07897181     0.00900
H984        H  0.39239688  0.69159992  0.10584618     0.15500
H985        H  0.31980873  0.61071430  0.10387046     0.15200
N986        N  0.36120520  0.55357791  0.00153282    -0.36100
N987        N  0.35358467  0.99744850  0.05323907    -0.56600
N988        N  0.35359492  0.94122707  0.00153796    -0.36100
N989        N  0.35360725  0.99746134  0.44983998    -0.56600
C990        C  0.35271848  0.57388296  0.02896195     0.27500
C991        C  0.35274277  0.57389009  0.47409711     0.27500
C992        C  0.34864205  0.91981922  0.02923365     0.27500
C993        C  0.34862985  0.91982474  0.47383826     0.27500
C994        C  0.35108145  0.52724591  0.07343178     0.36100
C995        C  0.34741066  0.96808260  0.07334794     0.36100
C996        C  0.35113009  0.52724605  0.42963267     0.36100
C997        C  0.34741244  0.96809696  0.42973132     0.36100
C998        C  0.33741995  0.60644516  0.01903022    -0.21300
C999        C  0.33743309  0.60644906  0.48402373    -0.21300
C1000       C  0.33939411  0.88469481  0.01911271    -0.21300
C1001       C  0.33938635  0.88469772  0.48395108    -0.21300
C1002       C  0.33999218  0.51718328  0.10553061    -0.22400
C1003       C  0.33779720  0.97938161  0.10553228    -0.22400
C1004       C  0.34004406  0.51717690  0.39753284    -0.22400
C1005       C  0.33780490  0.97939718  0.39754581    -0.22400
C1006       C  0.35773617  0.56338136  0.06273537    -0.17700
C1007       C  0.35777554  0.56338624  0.44032506    -0.17700
C1008       C  0.35172132  0.93131563  0.43971980    -0.17700
C1009       C  0.35174017  0.93130360  0.06335486    -0.17700
H1010       H  0.32637272  0.62734545  0.03534785     0.15200
H1011       H  0.32639461  0.62735027  0.46770263     0.15200
H1012       H  0.33211263  0.86194488  0.03545648     0.15200
H1013       H  0.33209771  0.86195140  0.46760225     0.15200
H1014       H  0.33296410  0.53533231  0.12618955     0.13400
H1015       H  0.32918266  0.96211501  0.12638416     0.13400
H1016       H  0.33302237  0.53532202  0.37687042     0.13400
H1017       H  0.32917635  0.96213268  0.37669479     0.13400
H1018       H  0.37572238  0.52944687  0.00153804     0.26700
H1019       H  0.36414262  0.96751014  0.00153950     0.26700
C1020       C  0.34490687  0.83689012  0.34594163    -0.12700
C1021       C  0.32786470  0.81835740  0.32648070    -0.14300
C1022       C  0.34216425  0.66128291  0.35372356    -0.12700
C1023       C  0.31982398  0.67871287  0.33939372    -0.14300
C1024       C  0.17962158  0.81800306  0.33996560    -0.12700
C1025       C  0.15988911  0.83732974  0.35548762    -0.14300
C1026       C  0.34498667  0.83686106  0.15711618    -0.12700
C1027       C  0.32793818  0.81833715  0.17657724    -0.14300
C1028       C  0.17454946  0.67722087  0.32051172    -0.12700
C1029       C  0.15827935  0.66103979  0.34247543    -0.14300
C1030       C  0.15998135  0.83731611  0.14742176    -0.12700
C1031       C  0.17970722  0.81799047  0.16295463    -0.14300
C1032       C  0.34225356  0.66130201  0.14933025    -0.12700
C1033       C  0.31991197  0.67872448  0.16366347    -0.14300
C1034       C  0.17460300  0.67721008  0.18243436    -0.12700
C1035       C  0.15832925  0.66103556  0.16046710    -0.14300
O1036       O  0.21478031  0.76724210  0.67670852    -0.79600
O1037       O  0.27565181  0.79063699  0.80956962    -0.79600
O1038       O  0.19926280  0.80554838  0.78592439    -0.79600
O1039       O  0.32291920  0.77203805  0.71756552    -0.79600
O1040       O  0.21471158  0.76725782  0.82625209    -0.79700
O1041       O  0.27570797  0.79062747  0.69345172    -0.79600
O1042       O  0.32288534  0.77203907  0.78550788    -0.79600
O1043       O  0.19929476  0.80554090  0.71701768    -0.79600
C1044       C  0.19954423  0.79641854  0.68613974     1.10100
C1045       C  0.30790633  0.79340638  0.80572786     1.10000
C1046       C  0.19948176  0.79643075  0.81680234     1.10100
C1047       C  0.30795993  0.79339719  0.69732366     1.10000
O1048       O  0.27452619  0.72207413  0.66590952    -0.79600
O1049       O  0.22511167  0.69769736  0.79176474    -0.79700
O1050       O  0.17719817  0.72959031  0.71659819    -0.79600
O1051       O  0.29367264  0.69839199  0.78843384    -0.79600
O1052       O  0.27445155  0.72208430  0.83711423    -0.79600
O1053       O  0.22514968  0.69769068  0.71121361    -0.79600
O1054       O  0.29371294  0.69838968  0.71460557    -0.79600
O1055       O  0.17716447  0.72959446  0.78633393    -0.79600
Co1056     Co  0.25275335  0.74367945  0.70465959     1.51500
Co1057     Co  0.25271018  0.74368685  0.79834268     1.51700
Co1058     Co  0.19223513  0.76718759  0.75147047     1.51600
Co1059     Co  0.30130591  0.73768733  0.75152508     1.51500
O1060       O  0.24626241  0.75965444  0.75149751    -1.41500
C1061       C  0.29527562  0.70089496  0.68181733     1.10000
C1062       C  0.19271678  0.70124810  0.79703887     1.10100
C1063       C  0.19275834  0.70124088  0.70591349     1.10100
C1064       C  0.29520742  0.70089620  0.82122393     1.10000
C1065       C  0.36644674  0.85896384  0.86931313     0.87000
C1066       C  0.39166471  0.88486288  0.85023000    -0.53200
C1067       C  0.41191106  0.90588632  0.87120435     0.10000
C1068       C  0.40500509  0.89875900  0.90949665     0.20900
C1069       C  0.38977200  0.83601849  0.89327178    -0.53900
C1070       C  0.40990608  0.85701097  0.91464869     0.10100
C1071       C  0.34496324  0.88393331  0.89299631    -0.53500
C1072       C  0.36532720  0.90477897  0.91420687     0.10600
H1073       H  0.39319382  0.88666992  0.82264614     0.15100
H1074       H  0.42156629  0.91593743  0.92664221     0.00900
H1075       H  0.39048364  0.80616977  0.89318309     0.15500
H1076       H  0.31651096  0.88502168  0.89304481     0.15200
C1077       C  0.36727046  0.63912598  0.87295557     0.87000
C1078       C  0.34814742  0.61271849  0.89712589    -0.53200
C1079       C  0.37009048  0.59146004  0.91566999     0.10000
C1080       C  0.40933742  0.59889728  0.90860209     0.20900
C1081       C  0.39250141  0.66178396  0.89565168    -0.53900
C1082       C  0.41487449  0.64062978  0.91435070     0.10100
C1083       C  0.39104913  0.61449690  0.85094439    -0.53500
C1084       C  0.41314740  0.59322866  0.86987006     0.10600
H1085       H  0.31977892  0.61069873  0.89922353     0.15100
H1086       H  0.42715665  0.58148705  0.92401936     0.00900
H1087       H  0.39234229  0.69160104  0.89716133     0.15500
H1088       H  0.39029623  0.61370872  0.82330449     0.15200
C1089       C  0.13569355  0.86096280  0.87386184     0.87000
C1090       C  0.15502853  0.88858347  0.89671451    -0.53200
C1091       C  0.13309028  0.91053824  0.91465961     0.10000
C1092       C  0.09383218  0.90250002  0.90824027     0.20900
C1093       C  0.11107842  0.83924921  0.89752929    -0.53900
C1094       C  0.08897591  0.86101619  0.91557553     0.10100
C1095       C  0.11147259  0.88435262  0.85108426    -0.53500
C1096       C  0.08942311  0.90633909  0.86934945     0.10600
H1097       H  0.18339638  0.89033435  0.89893215     0.15100
H1098       H  0.07599258  0.92031487  0.92322862     0.00900
H1099       H  0.11102302  0.80947100  0.89977229     0.15500
H1100       H  0.11210586  0.88403185  0.82343441     0.15200
C1101       C  0.13715015  0.64060605  0.86784793     0.87000
C1102       C  0.11203090  0.61347614  0.85033127    -0.53200
C1103       C  0.09229987  0.59332783  0.87237977     0.10000
C1104       C  0.09952369  0.60228202  0.91023975     0.20900
C1105       C  0.11354276  0.66439908  0.89118470    -0.53900
C1106       C  0.09370478  0.64409937  0.91364974     0.10100
C1107       C  0.15919060  0.61707629  0.89240006    -0.53500
C1108       C  0.13941177  0.59702807  0.91480505     0.10600
H1109       H  0.10985883  0.61051047  0.82286556     0.15100
H1110       H  0.08339900  0.58559496  0.92816382     0.00900
H1111       H  0.11264217  0.69420432  0.89003501     0.15500
H1112       H  0.18762502  0.61582155  0.89170258     0.15200
N1113       N  0.00134300  0.94313996  0.86021888    -0.36100
N1114       N  0.44852316  0.49994686  0.85603017    -0.56600
N1115       N  0.00199750  0.55601711  0.86067538    -0.36100
N1116       N  0.05471742  0.49964928  0.85654870    -0.56600
C1117       C  0.47251103  0.92295250  0.85283659     0.27500
C1118       C  0.02926748  0.92298737  0.85068263     0.27500
C1119       C  0.47402281  0.57741256  0.85415260     0.27500
C1120       C  0.03081427  0.57736401  0.85695383     0.27500
C1121       C  0.42733724  0.97022459  0.85331115     0.36100
C1122       C  0.42801499  0.52956937  0.85105977     0.36100
C1123       C  0.07535396  0.97022130  0.85128615     0.36100
C1124       C  0.07585632  0.52947660  0.85425158     0.36100
C1125       C  0.48201918  0.89047401  0.83722036    -0.21300
C1126       C  0.01815473  0.89049496  0.83587972    -0.21300
C1127       C  0.48512475  0.61235030  0.84533114    -0.21300
C1128       C  0.02119914  0.61230631  0.84704318    -0.21300
C1129       C  0.39425079  0.98070047  0.84326858    -0.22400
C1130       C  0.39468580  0.51851750  0.84183130    -0.22400
C1131       C  0.10870122  0.98138003  0.84239054    -0.22400
C1132       C  0.10898516  0.51917093  0.84412183    -0.22400
C1133       C  0.43786081  0.93374843  0.85887638    -0.17700
C1134       C  0.06449002  0.93342343  0.85459080    -0.17700
C1135       C  0.06558972  0.56581213  0.86118623    -0.17700
C1136       C  0.43872315  0.56635124  0.85591981    -0.17700
H1137       H  0.46466660  0.86956541  0.82694426     0.15200
H1138       H  0.03443574  0.86952922  0.82456668     0.15200
H1139       H  0.46885989  0.63497399  0.83725830     0.15200
H1140       H  0.03851015  0.63483509  0.84027829     0.15200
H1141       H  0.37260759  0.96279256  0.83645989     0.13400
H1142       H  0.37332813  0.53600189  0.83405691     0.13400
H1143       H  0.13005813  0.96401021  0.83438431     0.13400
H1144       H  0.13061717  0.53716741  0.83753609     0.13400
H1145       H  0.00190779  0.96708500  0.87471216     0.26700
H1146       H  0.00142320  0.52992534  0.87129903     0.26700
C1147       C  0.36651750  0.85893317  0.63373730     0.87000
C1148       C  0.34501855  0.88391267  0.61007498    -0.53200
C1149       C  0.36536653  0.90476185  0.58885813     0.10000
C1150       C  0.40504768  0.89873254  0.59354020     0.20900
C1151       C  0.38982208  0.83599004  0.60975617    -0.53900
C1152       C  0.40994324  0.85698540  0.58837392     0.10100
C1153       C  0.39175595  0.88482485  0.65281145    -0.53500
C1154       C  0.41198762  0.90584923  0.63182888     0.10600
H1155       H  0.31656629  0.88500350  0.61004358     0.15100
H1156       H  0.42159678  0.91591285  0.57638964     0.00900
H1157       H  0.39053344  0.80614133  0.60983774     0.15500
H1158       H  0.39330644  0.88662907  0.68039479     0.15200
C1159       C  0.13577832  0.86094710  0.62905303     0.87000
C1160       C  0.11157210  0.88434243  0.65184088    -0.53200
C1161       C  0.08951025  0.90632549  0.63358541     0.10000
C1162       C  0.09389722  0.90248260  0.59469364     0.20900
C1163       C  0.11114496  0.83923196  0.60539789    -0.53900
C1164       C  0.08903063  0.86099901  0.58736400     0.10100
C1165       C  0.15510056  0.88856217  0.60619028    -0.53500
C1166       C  0.13315247  0.91051627  0.58825511     0.10600
H1167       H  0.11222038  0.88402376  0.67949045     0.15100
H1168       H  0.07604931  0.92029663  0.57971318     0.00900
H1169       H  0.11108473  0.80945329  0.60315561     0.15500
H1170       H  0.18346720  0.89031186  0.60396121     0.15200
N1171       N  0.05257599  0.84776359  0.50147947    -0.36100
N1172       N  0.99918003  0.84135444  0.94981175    -0.56600
N1173       N  0.44534757  0.84447851  0.50150438    -0.36100
N1174       N  0.99920557  0.84135578  0.55317312    -0.56600
C1175       C  0.07244076  0.84052398  0.97390237     0.27500
C1176       C  0.07245455  0.84051495  0.52904623     0.27500
C1177       C  0.42561911  0.83668193  0.97375109     0.27500
C1178       C  0.42563324  0.83667045  0.52926096     0.27500
C1179       C  0.02753057  0.84184965  0.92918796     0.36100
C1180       C  0.47099984  0.83929777  0.92906326     0.36100
C1181       C  0.02757026  0.84184608  0.57378289     0.36100
C1182       C  0.47103760  0.83929248  0.57393339     0.36100
C1183       C  0.10469938  0.82728101  0.98392337    -0.21300
C1184       C  0.10470850  0.82727646  0.51900847    -0.21300
C1185       C  0.39351973  0.82259163  0.98389803    -0.21300
C1186       C  0.39352917  0.82258248  0.51911860    -0.21300
C1187       C  0.01754971  0.83639016  0.89584118    -0.22400
C1188       C  0.48154499  0.83478411  0.89574268    -0.22400
C1189       C  0.01761003  0.83638102  0.60713288    -0.22400
C1190       C  0.48160459  0.83477446  0.60724803    -0.22400
C1191       C  0.06237412  0.84669164  0.94006189    -0.17700
C1192       C  0.06240898  0.84667742  0.56289241    -0.17700
C1193       C  0.43591196  0.84225612  0.56341300    -0.17700
C1194       C  0.43588268  0.84227447  0.93959813    -0.17700
H1195       H  0.12578712  0.81815132  0.96763354     0.15200
H1196       H  0.12580544  0.81814306  0.53528742     0.15200
H1197       H  0.37265289  0.81264001  0.96756167     0.15200
H1198       H  0.37267029  0.81262544  0.53545757     0.15200
H1199       H  0.03468510  0.83255234  0.87423748     0.13400
H1200       H  0.46486608  0.82973287  0.87395919     0.13400
H1201       H  0.03475941  0.83253590  0.62872709     0.13400
H1202       H  0.46494000  0.82971716  0.62903789     0.13400
H1203       H  0.02894409  0.86183461  0.50148723     0.26700
H1204       H  0.46895048  0.85893986  0.50150239     0.26700
C1205       C  0.13719538  0.64060318  0.63509645     0.87000
C1206       C  0.15923195  0.61707677  0.61054095    -0.53200
C1207       C  0.13944959  0.59702408  0.58813871     0.10000
C1208       C  0.09956170  0.60227090  0.59270913     0.20900
C1209       C  0.11357695  0.66439158  0.61176562    -0.53900
C1210       C  0.09373464  0.64408623  0.58930300     0.10100
C1211       C  0.11208628  0.61347225  0.65261566    -0.53500
C1212       C  0.09235083  0.59332099  0.63056956     0.10600
H1213       H  0.18766679  0.61582665  0.61123458     0.15100
H1214       H  0.08343417  0.58557913  0.57478668     0.00900
H1215       H  0.11267095  0.69419654  0.61291840     0.15500
H1216       H  0.10992294  0.61050840  0.68008165     0.15200
N1217       N  0.00142433  0.94311294  0.64275544    -0.36100
N1218       N  0.44859399  0.49994555  0.64695737    -0.56600
N1219       N  0.00205870  0.55601280  0.64227646    -0.36100
N1220       N  0.05478481  0.49964875  0.64643868    -0.56600
C1221       C  0.47259925  0.92292769  0.65016362     0.27500
C1222       C  0.02935843  0.92296453  0.65227689     0.27300
C1223       C  0.47408794  0.57740517  0.64882383     0.27500
C1224       C  0.03087623  0.57735607  0.64601257     0.27500
C1225       C  0.42741552  0.97019367  0.64969218     0.36100
C1226       C  0.42808012  0.52956785  0.65190642     0.36100
C1227       C  0.07543740  0.97020229  0.65166086     0.36100
C1228       C  0.07592274  0.52947834  0.64871482     0.36100
C1229       C  0.48212301  0.89045643  0.66578100    -0.21300
C1230       C  0.01825975  0.89047915  0.66709642    -0.21300
C1231       C  0.48519366  0.61233401  0.65767571    -0.21300
C1232       C  0.02126673  0.61229011  0.65595580    -0.21300
C1233       C  0.39432832  0.98066825  0.65972978    -0.22400
C1234       C  0.39475090  0.51851966  0.66112985    -0.22400
C1235       C  0.10878981  0.98136553  0.66053925    -0.22400
C1236       C  0.10906070  0.51918267  0.65882877    -0.22400
C1237       C  0.43794216  0.93371621  0.64414257    -0.17700
C1238       C  0.06457788  0.93340446  0.64835387    -0.17700
C1239       C  0.06564866  0.56580645  0.64176856    -0.17700
C1240       C  0.43878853  0.56634793  0.64705477    -0.17700
H1241       H  0.46478050  0.86955048  0.67607266     0.15200
H1242       H  0.03455150  0.86951955  0.67840460     0.15200
H1243       H  0.46893287  0.63495142  0.66577212     0.15200
H1244       H  0.03858090  0.63481269  0.66273628     0.15200
H1245       H  0.37269060  0.96275910  0.66654635     0.13400
H1246       H  0.37339380  0.53600714  0.66889818     0.13400
H1247       H  0.13015536  0.96399915  0.66853055     0.13400
H1248       H  0.13069535  0.53718519  0.66539732     0.13400
H1249       H  0.00197556  0.96705405  0.62825877     0.26700
H1250       H  0.00148207  0.52992871  0.63163090     0.26700
N1251       N  0.14251755  0.94808657  0.50145971    -0.36100
N1252       N  0.15116238  0.50395314  0.94999381    -0.56600
N1253       N  0.14984224  0.56070183  0.50147291    -0.36100
N1254       N  0.15120149  0.50395002  0.55295127    -0.56600
C1255       C  0.14781559  0.92668863  0.97395537     0.27500
C1256       C  0.14783754  0.92668030  0.52895488     0.27500
C1257       C  0.15862287  0.58084521  0.97381358     0.27500
C1258       C  0.15864277  0.58084246  0.52912935     0.27500
C1259       C  0.15335071  0.97408199  0.92975676     0.36100
C1260       C  0.15702974  0.53324559  0.92967224     0.36100
C1261       C  0.15340543  0.97406246  0.57316505     0.36100
C1262       C  0.15707608  0.53324577  0.57327031     0.36100
C1263       C  0.15733631  0.89177257  0.98395948    -0.21300
C1264       C  0.15735136  0.89176752  0.51893248    -0.21300
C1265       C  0.17448487  0.61334040  0.98387505    -0.21300
C1266       C  0.17449748  0.61333872  0.51906593    -0.21300
C1267       C  0.16419678  0.98413855  0.89755757    -0.22400
C1268       C  0.16634269  0.52190978  0.89744788    -0.22400
C1269       C  0.16426947  0.98411460  0.60536250    -0.22400
C1270       C  0.16640480  0.52191566  0.60549242    -0.22400
C1271       C  0.14532320  0.93798419  0.94001484    -0.17700
C1272       C  0.14537156  0.93796635  0.56290106    -0.17700
C1273       C  0.15369341  0.57005174  0.56316217    -0.17700
C1274       C  0.15365667  0.57005379  0.93978080    -0.17700
H1275       H  0.16511106  0.86927418  0.96768437     0.15200
H1276       H  0.16513906  0.86926461  0.53519490     0.15200
H1277       H  0.18576398  0.63425746  0.96750980     0.15200
H1278       H  0.18578663  0.63425515  0.53542937     0.15200
H1279       H  0.17081162  0.96598780  0.87677329     0.13400
H1280       H  0.17484375  0.53913427  0.87652237     0.13400
H1281       H  0.17089735  0.96596106  0.62613959     0.13400
H1282       H  0.17491433  0.53914414  0.62641514     0.13400
H1283       H  0.13180811  0.97424314  0.50146688     0.26700
H1284       H  0.13472501  0.53679863  0.50147523     0.26700
N1285       N  0.00469639  0.65584901  0.55381034    -0.36100
N1286       N  0.45119041  0.65843750  0.50148876    -0.56600
N1287       N  0.00468473  0.65588323  0.94915984    -0.36100
N1288       N  0.05818271  0.66184028  0.50148102    -0.56600
C1289       C  0.47591184  0.66163038  0.57321830     0.27500
C1290       C  0.03308733  0.66392616  0.57320355     0.27500
C1291       C  0.47589483  0.66167610  0.92976013     0.27500
C1292       C  0.03307004  0.66396426  0.92976553     0.27500
C1293       C  0.42992816  0.65943067  0.52903665     0.36100
C1294       C  0.42992315  0.65944674  0.97394669     0.36100
C1295       C  0.07943309  0.66267150  0.52915419     0.36100
C1296       C  0.07942597  0.66268049  0.97380677     0.36100
C1297       C  0.48601716  0.67481326  0.60476394    -0.21300
C1298       C  0.02223918  0.67626469  0.60476013    -0.21300
C1299       C  0.48599079  0.67487323  0.89821933    -0.21300
C1300       C  0.02221330  0.67631997  0.89821728    -0.21300
C1301       C  0.39569058  0.66469022  0.51899492    -0.22400
C1302       C  0.39568723  0.66469987  0.98399286    -0.22400
C1303       C  0.11374601  0.66762404  0.51903337    -0.22400
C1304       C  0.11374119  0.66762987  0.98392608    -0.22400
C1305       C  0.44082424  0.65526120  0.56313695    -0.17700
C1306       C  0.06843759  0.65922475  0.56347561    -0.17700
C1307       C  0.06842144  0.65924606  0.93948502    -0.17700
C1308       C  0.44081192  0.65529441  0.93984343    -0.17700
H1309       H  0.46896897  0.68327145  0.62529932     0.15200
H1310       H  0.03875847  0.68587028  0.62538070     0.15200
H1311       H  0.46893650  0.68333931  0.87769000     0.15200
H1312       H  0.03872719  0.68592959  0.87759764     0.15200
H1313       H  0.37333727  0.66916730  0.53534946     0.13400
H1314       H  0.37333072  0.66918494  0.96764164     0.13400
H1315       H  0.13608428  0.67224175  0.53546394     0.13400
H1316       H  0.13607502  0.67225383  0.96749506     0.13400
H1317       H  0.00506294  0.64236018  0.53049515     0.26700
H1318       H  0.00505657  0.64238044  0.97246640     0.26700
C1319       C  0.36733597  0.63913589  0.63008015     0.87000
C1320       C  0.39113817  0.61451146  0.65207130    -0.53200
C1321       C  0.41320705  0.59323068  0.63312617     0.10000
C1322       C  0.40934722  0.59888242  0.59439760     0.20900
C1323       C  0.39254227  0.66177875  0.60735101    -0.53900
C1324       C  0.41488767  0.64061102  0.58863371     0.10100
C1325       C  0.34817534  0.61272298  0.60593860    -0.53500
C1326       C  0.37008871  0.59145153  0.58737733     0.10600
H1327       H  0.39041977  0.61373308  0.67971212     0.15100
H1328       H  0.42714209  0.58146065  0.57896538     0.00900
H1329       H  0.39239385  0.69159564  0.60584125     0.15500
H1330       H  0.31980368  0.61071125  0.60386974     0.15200
N1331       N  0.36120385  0.55357848  0.50152974    -0.36100
N1332       N  0.35358326  0.99744566  0.55324063    -0.56600
N1333       N  0.35359538  0.94122548  0.50153910    -0.36100
N1334       N  0.35360659  0.99746165  0.94983818    -0.56600
C1335       C  0.35271317  0.57388149  0.52895885     0.27500
C1336       C  0.35274015  0.57388752  0.97410015     0.27500
C1337       C  0.34864313  0.91981682  0.52923436     0.27500
C1338       C  0.34862939  0.91982579  0.97383751     0.27500
C1339       C  0.35107432  0.52724222  0.57342747     0.36100
C1340       C  0.34740947  0.96807940  0.57334912     0.36100
C1341       C  0.35112326  0.52724163  0.92963685     0.36100
C1342       C  0.34741152  0.96809704  0.92972992     0.36100
C1343       C  0.33741639  0.60644462  0.51902706    -0.21300
C1344       C  0.33743203  0.60644727  0.98402687    -0.21300
C1345       C  0.33939565  0.88469251  0.51911283    -0.21300
C1346       C  0.33938524  0.88469919  0.98395095    -0.21300
C1347       C  0.33998595  0.51717781  0.60552614    -0.22400
C1348       C  0.33779483  0.97937784  0.60553334    -0.22400
C1349       C  0.34003691  0.51717104  0.89753744    -0.22400
C1350       C  0.33780272  0.97939677  0.89754464    -0.22400
C1351       C  0.35772800  0.56337841  0.56273222    -0.17700
C1352       C  0.35776929  0.56338219  0.94032797    -0.17700
C1353       C  0.35172068  0.93131595  0.93971882    -0.17700
C1354       C  0.35174052  0.93130075  0.56335576    -0.17700
H1355       H  0.32636765  0.62734417  0.53534460     0.15200
H1356       H  0.32639168  0.62734746  0.96770597     0.15200
H1357       H  0.33211445  0.86194210  0.53545627     0.15200
H1358       H  0.33209632  0.86195265  0.96760251     0.15200
H1359       H  0.33295702  0.53532575  0.62618563     0.13400
H1360       H  0.32918026  0.96211088  0.62638488     0.13400
H1361       H  0.33301442  0.53531518  0.87687454     0.13400
H1362       H  0.32917365  0.96213193  0.87669403     0.13400
H1363       H  0.37572122  0.52944760  0.50153567     0.26700
H1364       H  0.36414264  0.96750867  0.50154101     0.26700
C1365       C  0.34490487  0.83688848  0.84594210    -0.12700
C1366       C  0.32786278  0.81835559  0.82648119    -0.14300
C1367       C  0.34216052  0.66128049  0.85372735    -0.12700
C1368       C  0.31982119  0.67871056  0.83939614    -0.14300
C1369       C  0.17962140  0.81800331  0.83996503    -0.12700
C1370       C  0.15988901  0.83733007  0.85548722    -0.14300
C1371       C  0.34498562  0.83685779  0.65711621    -0.12700
C1372       C  0.32793695  0.81833418  0.67657728    -0.14300
C1373       C  0.17454595  0.67722003  0.82051192    -0.12700
C1374       C  0.15827488  0.66103888  0.84247502    -0.14300
C1375       C  0.15998281  0.83731580  0.64742117    -0.12700
C1376       C  0.17970861  0.81798989  0.66295397    -0.14300
C1377       C  0.34225169  0.66129864  0.64932838    -0.12700
C1378       C  0.31991084  0.67872092  0.66366311    -0.14300
C1379       C  0.17460014  0.67720842  0.68243427    -0.12700
C1380       C  0.15832571  0.66103380  0.66046748    -0.14300
O1381       O  0.71478182  0.26724874  0.17671341    -0.79600
O1382       O  0.77564915  0.29063129  0.30958093    -0.79600
O1383       O  0.69925395  0.30554363  0.28593525    -0.79600
O1384       O  0.82292010  0.27204320  0.21757421    -0.79600
O1385       O  0.71470711  0.26724943  0.32625884    -0.79700
O1386       O  0.77570830  0.29063564  0.19346362    -0.79600
O1387       O  0.82288357  0.27204083  0.28551487    -0.79600
O1388       O  0.69929185  0.30554250  0.21702545    -0.79600
C1389       C  0.69954145  0.29642272  0.18614672     1.10100
C1390       C  0.80790334  0.29340396  0.30573724     1.10000
C1391       C  0.69947438  0.29642230  0.31681281     1.10100
C1392       C  0.80796013  0.29340601  0.19733608     1.10000
O1393       O  0.77453863  0.22208095  0.16591719    -0.79600
O1394       O  0.72511192  0.19769385  0.29176268    -0.79700
O1395       O  0.67720121  0.22958870  0.21659899    -0.79600
O1396       O  0.79367684  0.19839178  0.28843973    -0.79600
O1397       O  0.77444687  0.22207721  0.33711939    -0.79600
O1398       O  0.72515564  0.19769343  0.21121510    -0.79600
O1399       O  0.79371866  0.19839196  0.21461298    -0.79600
O1400       O  0.67716337  0.22958942  0.28633452    -0.79600
Co1401     Co  0.75275616  0.24368490  0.20466541     1.51500
Co1402     Co  0.75270819  0.24368274  0.29834810     1.51700
Co1403     Co  0.69223323  0.26718556  0.25147527     1.51600
Co1404     Co  0.80130707  0.23768965  0.25153216     1.51500
O1405       O  0.74626189  0.25965530  0.25150437    -1.41500
C1406       C  0.79528574  0.20089901  0.18182533     1.10000
C1407       C  0.69271703  0.20124314  0.29703711     1.10100
C1408       C  0.69276396  0.20124001  0.20591522     1.10100
C1409       C  0.79520780  0.20089400  0.32123017     1.10000
C1410       C  0.86644722  0.35895356  0.36932195     0.87000
C1411       C  0.89167338  0.38484615  0.35024138    -0.53200
C1412       C  0.91191952  0.40586717  0.37121817     0.10000
C1413       C  0.90500512  0.39874358  0.40950934     0.20900
C1414       C  0.88976376  0.33600474  0.39328540    -0.53900
C1415       C  0.90989818  0.35699483  0.41466372     0.10100
C1416       C  0.84496389  0.38392858  0.39299935    -0.53500
C1417       C  0.86532738  0.40477162  0.41421175     0.10600
H1418       H  0.89320614  0.38665277  0.32265768     0.15100
H1419       H  0.92156595  0.41591995  0.42665696     0.00900
H1420       H  0.89047130  0.30615581  0.39319736     0.15500
H1421       H  0.81651183  0.38502208  0.39304330     0.15200
C1422       C  0.86727856  0.13914060  0.37297021     0.87000
C1423       C  0.84815920  0.11273094  0.39714086    -0.53200
C1424       C  0.87010534  0.09147435  0.41568321     0.10000
C1425       C  0.90935109  0.09891519  0.40861386     0.20900
C1426       C  0.89250869  0.16180076  0.39566637    -0.53900
C1427       C  0.91488474  0.14064762  0.41436394     0.10100
C1428       C  0.89105824  0.11451428  0.35095779    -0.53500
C1429       C  0.91315947  0.09324812  0.36988166     0.10600
H1430       H  0.81979096  0.11070743  0.39923922     0.15100
H1431       H  0.92717240  0.08150580  0.42402972     0.00900
H1432       H  0.89234660  0.19161765  0.39717729     0.15500
H1433       H  0.89030329  0.11372565  0.32331796     0.15200
C1434       C  0.63569282  0.36095746  0.37388242     0.87000
C1435       C  0.65503069  0.38857499  0.39673691    -0.53200
C1436       C  0.63309445  0.41053649  0.41467803     0.10000
C1437       C  0.59383602  0.40250874  0.40825276     0.20900
C1438       C  0.61106854  0.33925241  0.39754838    -0.53900
C1439       C  0.58896862  0.36102727  0.41559037     0.10100
C1440       C  0.61148040  0.38435214  0.35110057    -0.53500
C1441       C  0.58943372  0.40634571  0.36936123     0.10600
H1442       H  0.68339859  0.39032017  0.39895725     0.15100
H1443       H  0.57599835  0.42032952  0.42323723     0.00900
H1444       H  0.61100667  0.30947444  0.39979495     0.15500
H1445       H  0.61211461  0.38402633  0.32345081     0.15200
C1446       C  0.63715955  0.14060593  0.36785240     0.87000
C1447       C  0.61204059  0.11347583  0.35033718    -0.53200
C1448       C  0.59231152  0.09332760  0.37238665     0.10000
C1449       C  0.59953634  0.10228206  0.41024626     0.20900
C1450       C  0.61355282  0.16439912  0.39118986    -0.53900
C1451       C  0.59371611  0.14409945  0.41365602     0.10100
C1452       C  0.65920204  0.11707678  0.39240310    -0.53500
C1453       C  0.63942482  0.09702835  0.41480921     0.10600
H1454       H  0.60986657  0.11051030  0.32287160     0.15100
H1455       H  0.58341268  0.08559459  0.42817103     0.00900
H1456       H  0.61265160  0.19420429  0.39003962     0.15500
H1457       H  0.68763639  0.11582196  0.39170339     0.15200
N1458       N  0.50135066  0.44313089  0.36023498    -0.36100
N1459       N  0.94852839  0.99996685  0.35602224    -0.56600
N1460       N  0.50200722  0.05602827  0.36068086    -0.36100
N1461       N  0.55472190  0.99965393  0.35654138    -0.56600
C1462       C  0.97252068  0.42293868  0.35285551     0.27500
C1463       C  0.52927675  0.42298264  0.35069525     0.27500
C1464       C  0.97403490  0.07742991  0.35416627     0.27500
C1465       C  0.53082609  0.07737213  0.35696245     0.27500
C1466       C  0.92734196  0.47020527  0.35332417     0.36100
C1467       C  0.92802371  0.02959269  0.35105582     0.36100
C1468       C  0.57535780  0.47022228  0.35128356     0.36100
C1469       C  0.57586463  0.02947924  0.35425572     0.36100
C1470       C  0.98203174  0.39046180  0.33723813    -0.21300
C1471       C  0.51816701  0.39048860  0.33589352    -0.21300
C1472       C  0.98514027  0.11236903  0.34535383    -0.21300
C1473       C  0.52121460  0.11231926  0.34706251    -0.21300
C1474       C  0.89425327  0.48067570  0.34328381    -0.22400
C1475       C  0.89469509  0.01854650  0.34181950    -0.22400
C1476       C  0.60870032  0.48138386  0.34237357    -0.22400
C1477       C  0.60899649  0.01917105  0.34413764    -0.22400
C1478       C  0.93786915  0.43373117  0.35889370    -0.17700
C1479       C  0.56449842  0.43342403  0.35459720    -0.17700
C1480       C  0.56560001  0.06581509  0.36119266    -0.17700
C1481       C  0.93873438  0.06637166  0.35592875    -0.17700
H1482       H  0.96468113  0.36955106  0.32696273     0.15200
H1483       H  0.53444983  0.36952566  0.32457852     0.15200
H1484       H  0.96887760  0.13499727  0.33728773     0.15200
H1485       H  0.53852783  0.13484802  0.34030286     0.15200
H1486       H  0.87261100  0.46276425  0.33648052     0.13400
H1487       H  0.87333974  0.03603494  0.33404683     0.13400
H1488       H  0.63005641  0.46401572  0.33436184     0.13400
H1489       H  0.63063253  0.03716606  0.33756116     0.13400
H1490       H  0.50191402  0.46707735  0.37472638     0.26700
H1491       H  0.50143075  0.02993343  0.37129766     0.26700
C1492       C  0.86651278  0.35894807  0.13375198     0.87000
C1493       C  0.84501326  0.38392824  0.11009046    -0.53200
C1494       C  0.86536063  0.40477295  0.08886923     0.10000
C1495       C  0.90504174  0.39873809  0.09354595     0.20900
C1496       C  0.88981076  0.33599939  0.10977028    -0.53900
C1497       C  0.90993133  0.35698974  0.08838415     0.10100
C1498       C  0.89175756  0.38483834  0.15282024    -0.53500
C1499       C  0.91198901  0.40585737  0.13183250     0.10600
H1500       H  0.81656124  0.38502162  0.11006192     0.15100
H1501       H  0.92159051  0.41591396  0.07639131     0.00900
H1502       H  0.89052030  0.30615059  0.10985594     0.15500
H1503       H  0.89331100  0.38664696  0.18040310     0.15200
C1504       C  0.63577193  0.36096564  0.12907125     0.87000
C1505       C  0.61157342  0.38436527  0.15186374    -0.53200
C1506       C  0.58951323  0.40635488  0.13361271     0.10000
C1507       C  0.59389407  0.40251375  0.09471980     0.20900
C1508       C  0.61113022  0.33925835  0.10541787    -0.53900
C1509       C  0.58901814  0.36103197  0.08738777     0.10100
C1510       C  0.65509612  0.38857812  0.10620668    -0.53500
C1511       C  0.63314977  0.41053811  0.08827509     0.10600
H1512       H  0.61222311  0.38404176  0.17951327     0.15100
H1513       H  0.57604766  0.42033265  0.07974281     0.00900
H1514       H  0.61106470  0.30947998  0.10317209     0.15500
H1515       H  0.68346270  0.39032117  0.10397327     0.15200
N1516       N  0.55256063  0.34778859  0.00149748    -0.36100
N1517       N  0.49917095  0.34136305  0.44982731    -0.56600
N1518       N  0.94533631  0.34445583  0.00152009    -0.36100
N1519       N  0.49919440  0.34137917  0.05319207    -0.56600
C1520       C  0.57243070  0.34055695  0.47392283     0.27500
C1521       C  0.57244282  0.34055619  0.02906611     0.27500
C1522       C  0.92560864  0.33666017  0.47376436     0.27500
C1523       C  0.92562124  0.33665781  0.02927798     0.27500
C1524       C  0.52752223  0.34186286  0.42920482     0.36100
C1525       C  0.97099199  0.33929025  0.42907881     0.36100
C1526       C  0.52755800  0.34187930  0.07380278     0.36100
C1527       C  0.97102615  0.33930393  0.07395050     0.36100
C1528       C  0.60469381  0.32732898  0.48394640    -0.21300
C1529       C  0.60470130  0.32732848  0.01903057    -0.21300
C1530       C  0.89350660  0.32257569  0.48391056    -0.21300
C1531       C  0.89351379  0.32257602  0.01913821    -0.21300
C1532       C  0.51754394  0.33639191  0.39585886    -0.22400
C1533       C  0.98153957  0.33477380  0.39575923    -0.22400
C1534       C  0.51759802  0.33640985  0.10715227    -0.22400
C1535       C  0.98159293  0.33479059  0.10726588    -0.22400
C1536       C  0.56236441  0.34671370  0.44008011    -0.17700
C1537       C  0.56239570  0.34671831  0.06291247    -0.17700
C1538       C  0.93590013  0.34225445  0.06342835    -0.17700
C1539       C  0.93587345  0.34225602  0.43961224    -0.17700
H1540       H  0.62578504  0.31820494  0.46765815     0.15200
H1541       H  0.62580103  0.31820561  0.03531097     0.15200
H1542       H  0.87263772  0.31262957  0.46757378     0.15200
H1543       H  0.87265206  0.31262900  0.03547906     0.15200
H1544       H  0.53468116  0.33255280  0.37425673     0.13400
H1545       H  0.96486292  0.32971274  0.37397589     0.13400
H1546       H  0.53474757  0.33256847  0.12874685     0.13400
H1547       H  0.96492885  0.32972764  0.12905508     0.13400
H1548       H  0.52892342  0.36184957  0.00150176     0.26700
H1549       H  0.96893962  0.35891559  0.00151580     0.26700
C1550       C  0.63721229  0.14058439  0.13510191     0.87000
C1551       C  0.65924960  0.11705527  0.11054842    -0.53200
C1552       C  0.63946749  0.09700324  0.08814484     0.10000
C1553       C  0.59957971  0.10225419  0.09271180     0.20900
C1554       C  0.61359763  0.16437388  0.11176909    -0.53900
C1555       C  0.59375580  0.14407034  0.08930534     0.10100
C1556       C  0.61210008  0.11345524  0.15261941    -0.53500
C1557       C  0.59236558  0.09330483  0.13057161     0.10600
H1558       H  0.68768441  0.11580472  0.11124299     0.15100
H1559       H  0.58345212  0.08556389  0.07478833     0.00900
H1560       H  0.61269241  0.19417886  0.11292257     0.15500
H1561       H  0.60993458  0.11049136  0.18008517     0.15200
N1562       N  0.50142532  0.44313027  0.14276739    -0.36100
N1563       N  0.94860197  0.99994005  0.14697471    -0.56600
N1564       N  0.50207149  0.05600132  0.14229032    -0.36100
N1565       N  0.55479436  0.99963105  0.14642191    -0.56600
C1566       C  0.97259950  0.42294350  0.15017038     0.27500
C1567       C  0.52935848  0.42298627  0.15229982     0.27300
C1568       C  0.97410330  0.07739788  0.14883602     0.27500
C1569       C  0.53089157  0.07734243  0.14601889     0.27500
C1570       C  0.92741290  0.47020679  0.14967548     0.36100
C1571       C  0.92809302  0.02956414  0.15193417     0.36100
C1572       C  0.57543280  0.47022868  0.15169526     0.36100
C1573       C  0.57593580  0.02945792  0.14869844     0.36100
C1574       C  0.98212167  0.39047564  0.16579493    -0.21300
C1575       C  0.51825823  0.39050207  0.16712048    -0.21300
C1576       C  0.98521313  0.11232786  0.15767880    -0.21300
C1577       C  0.52128592  0.11227975  0.15595592    -0.21300
C1578       C  0.89432078  0.48068066  0.15969766    -0.22400
C1579       C  0.89476690  0.01851781  0.16117097    -0.22400
C1580       C  0.60878079  0.48139742  0.16058401    -0.22400
C1581       C  0.60907707  0.01915556  0.15879575    -0.22400
C1582       C  0.93794296  0.43372852  0.14413897    -0.17700
C1583       C  0.56457843  0.43342922  0.14838605    -0.17700
C1584       C  0.56566273  0.06579004  0.14176830    -0.17700
C1585       C  0.93880245  0.06634337  0.14707522    -0.17700
H1586       H  0.96477807  0.36956961  0.17608464     0.15200
H1587       H  0.53454853  0.36954535  0.17843519     0.15200
H1588       H  0.96895518  0.13494879  0.16577202     0.15200
H1589       H  0.53860261  0.13480249  0.16272977     0.15200
H1590       H  0.87268187  0.46277095  0.16650898     0.13400
H1591       H  0.87341358  0.03600647  0.16894682     0.13400
H1592       H  0.63014584  0.46403506  0.16858486     0.13400
H1593       H  0.63071526  0.03715413  0.16536225     0.13400
H1594       H  0.50197906  0.46706916  0.12826776     0.26700
H1595       H  0.50149061  0.02991521  0.13164983     0.26700
N1596       N  0.64251456  0.44809558  0.00147573    -0.36100
N1597       N  0.65117529  0.00395137  0.44998629    -0.56600
N1598       N  0.64985424  0.06069120  0.00147256    -0.36100
N1599       N  0.65121435  0.00393522  0.05294443    -0.56600
C1600       C  0.64782612  0.42669689  0.47397115     0.27500
C1601       C  0.64784444  0.42669638  0.02897405     0.27500
C1602       C  0.65863011  0.08084115  0.47381772     0.27500
C1603       C  0.65865062  0.08083165  0.02913049     0.27500
C1604       C  0.65334155  0.47408561  0.42976582     0.36100
C1605       C  0.65705142  0.03324658  0.42967073     0.36100
C1606       C  0.65339087  0.47408598  0.07317951     0.36100
C1607       C  0.65709991  0.03322752  0.07326493     0.36100
C1608       C  0.65736182  0.39178686  0.48397931    -0.21300
C1609       C  0.65737292  0.39178651  0.01895639    -0.21300
C1610       C  0.67448312  0.11333908  0.48388435    -0.21300
C1611       C  0.67449547  0.11333350  0.01906887    -0.21300
C1612       C  0.66417339  0.48414002  0.39756182    -0.22400
C1613       C  0.66637444  0.02191493  0.39744765    -0.22400
C1614       C  0.66423719  0.48414582  0.10538024    -0.22400
C1615       C  0.66644391  0.02189133  0.10548115    -0.22400
C1616       C  0.64532775  0.43798671  0.44002935    -0.17700
C1617       C  0.64536980  0.43798606  0.06291882    -0.17700
C1618       C  0.65371057  0.07003513  0.06316314    -0.17700
C1619       C  0.65367146  0.07005306  0.43978293    -0.17700
H1620       H  0.66514642  0.36928986  0.46770688     0.15200
H1621       H  0.66516894  0.36928929  0.03522169     0.15200
H1622       H  0.68575925  0.13426080  0.46752246     0.15200
H1623       H  0.68578147  0.13425065  0.03543353     0.15200
H1624       H  0.67078410  0.46598746  0.37677777     0.13400
H1625       H  0.67488057  0.03914205  0.37652587     0.13400
H1626       H  0.67085778  0.46599689  0.12616290     0.13400
H1627       H  0.67496111  0.03911577  0.12640378     0.13400
H1628       H  0.63179449  0.47424769  0.00147944     0.26700
H1629       H  0.63474297  0.03678426  0.00147324     0.26700
N1630       N  0.50471499  0.15584237  0.05382186    -0.36100
N1631       N  0.95120192  0.15843663  0.00150579    -0.56600
N1632       N  0.50469628  0.15588634  0.44917051    -0.36100
N1633       N  0.55819674  0.16182515  0.00148874    -0.56600
C1634       C  0.97593322  0.16162980  0.07323209     0.27500
C1635       C  0.53310878  0.16391792  0.07321189     0.27500
C1636       C  0.97590569  0.16169081  0.42977461     0.27500
C1637       C  0.53308164  0.16396882  0.42977609     0.27500
C1638       C  0.92994336  0.15943123  0.02905635     0.36100
C1639       C  0.92993446  0.15945330  0.47396248     0.36100
C1640       C  0.57944965  0.16266352  0.02915957     0.36100
C1641       C  0.57943938  0.16267769  0.47381374     0.36100
C1642       C  0.98604335  0.17481621  0.10477503    -0.21300
C1643       C  0.52226537  0.17626292  0.10476775    -0.21300
C1644       C  0.98600150  0.17489710  0.39823702    -0.21300
C1645       C  0.52222427  0.17633764  0.39823257    -0.21300
C1646       C  0.89570502  0.16469529  0.01901877    -0.22400
C1647       C  0.89569937  0.16470805  0.48401096    -0.22400
C1648       C  0.61375998  0.16763037  0.01903602    -0.22400
C1649       C  0.61375354  0.16763876  0.48393225    -0.22400
C1650       C  0.94084397  0.15526232  0.06315548    -0.17700
C1651       C  0.56845749  0.15921224  0.06348102    -0.17700
C1652       C  0.56843363  0.15924584  0.43949267    -0.17700
C1653       C  0.94082214  0.15531065  0.43985772    -0.17700
H1654       H  0.96899818  0.18327953  0.12531108     0.15200
H1655       H  0.53878784  0.18586959  0.12538554     0.15200
H1656       H  0.96894694  0.18337258  0.37771122     0.15200
H1657       H  0.53873795  0.18595208  0.37761455     0.15200
H1658       H  0.87335418  0.16917445  0.03537595     0.13400
H1659       H  0.87334279  0.16919980  0.46766139     0.13400
H1660       H  0.63609831  0.17225684  0.03546461     0.13400
H1661       H  0.63608559  0.17227295  0.46750116     0.13400
H1662       H  0.50507734  0.14235094  0.03050785     0.26700
H1663       H  0.50506741  0.14237669  0.47247370     0.26700
C1664       C  0.86735208  0.13913487  0.13009486     0.87000
C1665       C  0.89115000  0.11450718  0.15208800    -0.53200
C1666       C  0.91322168  0.09322691  0.13314502     0.10000
C1667       C  0.90936908  0.09888295  0.09441622     0.20900
C1668       C  0.89256290  0.16177862  0.10737097    -0.53900
C1669       C  0.91491062  0.14061186  0.08865527     0.10100
C1670       C  0.84819554  0.11272410  0.10594780    -0.53500
C1671       C  0.87011214  0.09145335  0.08738880     0.10600
H1672       H  0.89042702  0.11372675  0.17972866     0.15100
H1673       H  0.92716624  0.08146220  0.07898551     0.00900
H1674       H  0.89241359  0.19159558  0.10586110     0.15500
H1675       H  0.81982421  0.11071252  0.10387442     0.15200
N1676       N  0.86122450  0.05358206  0.00153891    -0.36100
N1677       N  0.85357492  0.49744961  0.05324114    -0.56600
N1678       N  0.85359698  0.44122440  0.00154532    -0.36100
N1679       N  0.85360080  0.49745622  0.44983329    -0.56600
C1680       C  0.85273710  0.07388401  0.02896970     0.27500
C1681       C  0.85275878  0.07389340  0.47411094     0.27500
C1682       C  0.84864219  0.41981955  0.02924283     0.27500
C1683       C  0.84863099  0.41982225  0.47383994     0.27500
C1684       C  0.85110582  0.02724213  0.07343549     0.36100
C1685       C  0.84739367  0.46808626  0.07335078     0.36100
C1686       C  0.85114156  0.02725367  0.42964199     0.36100
C1687       C  0.84740400  0.46808925  0.42972888     0.36100
C1688       C  0.83743733  0.10644672  0.01904119    -0.21300
C1689       C  0.83744971  0.10645151  0.48404080    -0.21300
C1690       C  0.83939063  0.38469524  0.01912547    -0.21300
C1691       C  0.83938530  0.38469662  0.48395463    -0.21300
C1692       C  0.84003268  0.01717572  0.10553807    -0.22400
C1693       C  0.83776076  0.47938859  0.10552876    -0.22400
C1694       C  0.84006087  0.01718888  0.39753939    -0.22400
C1695       C  0.83778932  0.47938485  0.39754383    -0.22400
C1696       C  0.85775612  0.06337954  0.06274178    -0.17700
C1697       C  0.85778794  0.06339238  0.44033806    -0.17700
C1698       C  0.85171956  0.43131015  0.43972080    -0.17700
C1699       C  0.85173407  0.43130755  0.06336311    -0.17700
H1700       H  0.82638973  0.12734509  0.03536065     0.15200
H1701       H  0.82640901  0.12735357  0.46772195     0.15200
H1702       H  0.83210444  0.36194889  0.03547152     0.15200
H1703       H  0.83209304  0.36195052  0.46760702     0.15200
H1704       H  0.83301496  0.03532272  0.12620176     0.13400
H1705       H  0.82913855  0.46212407  0.12637932     0.13400
H1706       H  0.83304278  0.03533686  0.37687808     0.13400
H1707       H  0.82915831  0.46211737  0.37669575     0.13400
H1708       H  0.87574187  0.02945091  0.00154152     0.26700
H1709       H  0.86414614  0.46750702  0.00154384     0.26700
C1710       C  0.84490421  0.33688228  0.34595026    -0.12700
C1711       C  0.82785923  0.31835227  0.32649031    -0.14300
C1712       C  0.84216526  0.16129009  0.35374071    -0.12700
C1713       C  0.81982397  0.17871301  0.33940466    -0.14300
C1714       C  0.67961424  0.31799153  0.33998061    -0.12700
C1715       C  0.65988506  0.33731785  0.35550864    -0.14300
C1716       C  0.84498247  0.33687553  0.15713427    -0.12700
C1717       C  0.82793586  0.31834825  0.17659398    -0.14300
C1718       C  0.67454890  0.17721577  0.32051114    -0.12700
C1719       C  0.65828116  0.16103712  0.34247735    -0.14300
C1720       C  0.65997517  0.33732587  0.14743455    -0.12700
C1721       C  0.67970173  0.31799517  0.16296294    -0.14300
C1722       C  0.84226463  0.16129839  0.14934073    -0.12700
C1723       C  0.81992281  0.17872333  0.16367274    -0.14300
C1724       C  0.67460818  0.17720113  0.18243935    -0.12700
C1725       C  0.65833920  0.16101799  0.16047393    -0.14300
O1726       O  0.71477784  0.26724599  0.67671309    -0.79600
O1727       O  0.77564442  0.29063075  0.80958169    -0.79600
O1728       O  0.69925019  0.30554283  0.78593397    -0.79600
O1729       O  0.82291600  0.27204472  0.71757368    -0.79600
O1730       O  0.71470259  0.26724885  0.82625797    -0.79700
O1731       O  0.77570413  0.29063272  0.69346026    -0.79600
O1732       O  0.82287920  0.27204255  0.78551477    -0.79600
O1733       O  0.69928881  0.30554079  0.71702466    -0.79600
C1734       C  0.69953872  0.29642078  0.68614605     1.10100
C1735       C  0.80789857  0.29340427  0.80573820     1.10000
C1736       C  0.69947045  0.29642193  0.81681158     1.10100
C1737       C  0.80795572  0.29340502  0.69733345     1.10000
O1738       O  0.77453358  0.22207724  0.66591672    -0.79600
O1739       O  0.72510826  0.19769309  0.79176176    -0.79700
O1740       O  0.67719745  0.22958703  0.71659879    -0.79600
O1741       O  0.79367370  0.19839267  0.78843945    -0.79600
O1742       O  0.77444221  0.22207662  0.83711918    -0.79600
O1743       O  0.72515184  0.19769142  0.71121656    -0.79600
O1744       O  0.79371622  0.19839195  0.71461313    -0.79600
O1745       O  0.67715959  0.22958844  0.78633406    -0.79600
Co1746     Co  0.75275230  0.24368248  0.70466489     1.51500
Co1747     Co  0.75270399  0.24368217  0.79834771     1.51700
Co1748     Co  0.69222953  0.26718437  0.75147455     1.51600
Co1749     Co  0.80130367  0.23769069  0.75153186     1.51500
O1750       O  0.74625825  0.25965484  0.75150365    -1.41500
C1751       C  0.79528202  0.20089710  0.68182529     1.10000
C1752       C  0.69271340  0.20124217  0.79703641     1.10100
C1753       C  0.69276025  0.20123789  0.70591615     1.10100
C1754       C  0.79520401  0.20089432  0.82122995     1.10000
C1755       C  0.86644240  0.35895023  0.86932687     0.87000
C1756       C  0.89166805  0.38484399  0.85024706    -0.53200
C1757       C  0.91191460  0.40586388  0.87122443     0.10000
C1758       C  0.90500123  0.39873812  0.90951537     0.20900
C1759       C  0.88975975  0.33600009  0.89328861    -0.53900
C1760       C  0.90989477  0.35698906  0.91466743     0.10100
C1761       C  0.84495968  0.38392404  0.89300604    -0.53500
C1762       C  0.86532357  0.40476608  0.91421900     0.10600
H1763       H  0.89320026  0.38665212  0.82266343     0.15100
H1764       H  0.92156252  0.41591363  0.92666335     0.00900
H1765       H  0.89046725  0.30615124  0.89319918     0.15500
H1766       H  0.81650758  0.38501814  0.89305003     0.15200
C1767       C  0.86727616  0.13914082  0.87296840     0.87000
C1768       C  0.84815713  0.11273070  0.89713875    -0.53200
C1769       C  0.87010354  0.09147386  0.91568046     0.10000
C1770       C  0.90934920  0.09891468  0.90861083     0.20900
C1771       C  0.89250659  0.16180044  0.89566482    -0.53900
C1772       C  0.91488288  0.14064695  0.91436188     0.10100
C1773       C  0.89105556  0.11451488  0.85095521    -0.53500
C1774       C  0.91315707  0.09324827  0.86987843     0.10600
H1775       H  0.81978894  0.11070731  0.89923766     0.15100
H1776       H  0.92717060  0.08150491  0.92402619     0.00900
H1777       H  0.89234441  0.19161736  0.89717629     0.15500
H1778       H  0.89030001  0.11372659  0.82331538     0.15200
C1779       C  0.63568875  0.36095587  0.87388173     0.87000
C1780       C  0.65502569  0.38857239  0.89673803    -0.53200
C1781       C  0.63308872  0.41053249  0.91467985     0.10000
C1782       C  0.59383054  0.40250410  0.90825350     0.20900
C1783       C  0.61106438  0.33924876  0.89754593    -0.53900
C1784       C  0.58896362  0.36102199  0.91558858     0.10100
C1785       C  0.61147647  0.38435144  0.85110065    -0.53500
C1786       C  0.58942913  0.40634343  0.86936214     0.10600
H1787       H  0.68339352  0.39031857  0.89895831     0.15100
H1788       H  0.57599217  0.42032357  0.92323857     0.00900
H1789       H  0.61100344  0.30947073  0.89979126     0.15500
H1790       H  0.61211109  0.38402723  0.82345088     0.15200
C1791       C  0.63715724  0.14060429  0.86785193     0.87000
C1792       C  0.61203730  0.11347493  0.85033704    -0.53200
C1793       C  0.59230825  0.09332704  0.87238685     0.10000
C1794       C  0.59953430  0.10228071  0.91024630     0.20900
C1795       C  0.61355153  0.16439770  0.89118994    -0.53900
C1796       C  0.59371502  0.14409810  0.91365622     0.10100
C1797       C  0.65919985  0.11707455  0.89240210    -0.53500
C1798       C  0.63942278  0.09702628  0.91480842     0.10600
H1799       H  0.60986276  0.11050955  0.82287150     0.15100
H1800       H  0.58341071  0.08559348  0.92817124     0.00900
H1801       H  0.61265049  0.19420287  0.89003969     0.15500
H1802       H  0.68763420  0.11581956  0.89170217     0.15200
N1803       N  0.50134583  0.44312850  0.86023929    -0.36100
N1804       N  0.94852523  0.99996648  0.85601904    -0.56600
N1805       N  0.50200399  0.05602765  0.86067923    -0.36100
N1806       N  0.55471913  0.99965269  0.85654510    -0.56600
C1807       C  0.97251565  0.42293547  0.85286239     0.27500
C1808       C  0.52927155  0.42297966  0.85069986     0.27500
C1809       C  0.97403197  0.07742884  0.85416187     0.27500
C1810       C  0.53082313  0.07737096  0.85696031     0.27500
C1811       C  0.92733707  0.47020233  0.85333121     0.36100
C1812       C  0.92802029  0.02959222  0.85105292     0.36100
C1813       C  0.57535246  0.47021960  0.85128350     0.36100
C1814       C  0.57586195  0.02947794  0.85425978     0.36100
C1815       C  0.98202628  0.39045731  0.83724707    -0.21300
C1816       C  0.51816147  0.39048426  0.83590108    -0.21300
C1817       C  0.98513789  0.11236703  0.84534690    -0.21300
C1818       C  0.52121222  0.11231718  0.84705699    -0.21300
C1819       C  0.89424841  0.48067267  0.84329066    -0.22400
C1820       C  0.89469152  0.01854585  0.84181719    -0.22400
C1821       C  0.60869462  0.48138080  0.84237170    -0.22400
C1822       C  0.60899436  0.01916967  0.84414372    -0.22400
C1823       C  0.93786429  0.43372818  0.85890071    -0.17700
C1824       C  0.56449323  0.43342152  0.85459913    -0.17700
C1825       C  0.56559683  0.06581418  0.86119351    -0.17700
C1826       C  0.93873128  0.06637131  0.85592487    -0.17700
H1827       H  0.96467537  0.36954598  0.82697329     0.15200
H1828       H  0.53444402  0.36952087  0.82458638     0.15200
H1829       H  0.96887563  0.13499473  0.83727877     0.15200
H1830       H  0.53852577  0.13484531  0.84029646     0.15200
H1831       H  0.87260623  0.46276119  0.83648721     0.13400
H1832       H  0.87333599  0.03603409  0.83404472     0.13400
H1833       H  0.63005022  0.46401248  0.83435933     0.13400
H1834       H  0.63063043  0.03716469  0.83756732     0.13400
H1835       H  0.50190977  0.46707618  0.87472894     0.26700
H1836       H  0.50142692  0.02993374  0.87129829     0.26700
C1837       C  0.86650927  0.35894375  0.63374651     0.87000
C1838       C  0.84501115  0.38392397  0.61008369    -0.53200
C1839       C  0.86535961  0.40476751  0.58886234     0.10000
C1840       C  0.90504040  0.39873105  0.59354003     0.20900
C1841       C  0.88980725  0.33599342  0.60976609    -0.53900
C1842       C  0.90992908  0.35698231  0.58837980     0.10100
C1843       C  0.89175436  0.38483394  0.65281444    -0.53500
C1844       C  0.91198694  0.40585150  0.63182643     0.10600
H1845       H  0.81655913  0.38501878  0.61005489     0.15100
H1846       H  0.92159019  0.41590578  0.57638535     0.00900
H1847       H  0.89051602  0.30614459  0.60985279     0.15500
H1848       H  0.89330703  0.38664375  0.68039733     0.15200
C1849       C  0.63577018  0.36096346  0.62907098     0.87000
C1850       C  0.61157243  0.38436379  0.65186349    -0.53200
C1851       C  0.58951125  0.40635218  0.63361236     0.10000
C1852       C  0.59389036  0.40250912  0.59471946     0.20900
C1853       C  0.61112780  0.33925451  0.60541969    -0.53900
C1854       C  0.58901456  0.36102676  0.58738964     0.10100
C1855       C  0.65509309  0.38857507  0.60620460    -0.53500
C1856       C  0.63314575  0.41053392  0.58827304     0.10600
H1857       H  0.61222309  0.38404132  0.67951299     0.15100
H1858       H  0.57604307  0.42032702  0.57974239     0.00900
H1859       H  0.61106318  0.30947612  0.60317469     0.15500
H1860       H  0.68345957  0.39031905  0.60397064     0.15200
N1861       N  0.55256133  0.34778863  0.50149875    -0.36100
N1862       N  0.49916807  0.34135405  0.94982803    -0.56600
N1863       N  0.94533680  0.34445526  0.50151765    -0.36100
N1864       N  0.49919290  0.34136956  0.55319105    -0.56600
C1865       C  0.57242848  0.34055314  0.97392152     0.27500
C1866       C  0.57244222  0.34055279  0.52906740     0.27500
C1867       C  0.92560672  0.33665805  0.97376836     0.27500
C1868       C  0.92562106  0.33665241  0.52927392     0.27500
C1869       C  0.52751863  0.34185250  0.92920463     0.36100
C1870       C  0.97098827  0.33927986  0.92908062     0.36100
C1871       C  0.52755579  0.34186880  0.57380273     0.36100
C1872       C  0.97102390  0.33929273  0.57394842     0.36100
C1873       C  0.60469202  0.32732632  0.98394495    -0.21300
C1874       C  0.60470142  0.32732686  0.51903202    -0.21300
C1875       C  0.89350434  0.32257683  0.98391727    -0.21300
C1876       C  0.89351461  0.32257030  0.51913152    -0.21300
C1877       C  0.51753921  0.33637880  0.89585931    -0.22400
C1878       C  0.98153469  0.33476070  0.89576095    -0.22400
C1879       C  0.51759469  0.33639668  0.60715157    -0.22400
C1880       C  0.98158953  0.33477700  0.60726389    -0.22400
C1881       C  0.56236092  0.34670638  0.94007868    -0.17700
C1882       C  0.56239362  0.34671127  0.56291380    -0.17700
C1883       C  0.93589832  0.34224543  0.56342514    -0.17700
C1884       C  0.93587025  0.34224903  0.93961520    -0.17700
H1885       H  0.62578247  0.31820035  0.96765663     0.15200
H1886       H  0.62580050  0.31820247  0.53531247     0.15200
H1887       H  0.87263439  0.31262979  0.96758232     0.15200
H1888       H  0.87265269  0.31262036  0.53547054     0.15200
H1889       H  0.53467565  0.33253910  0.87425666     0.13400
H1890       H  0.96485727  0.32969913  0.87397827     0.13400
H1891       H  0.53474353  0.33255487  0.62874663     0.13400
H1892       H  0.96492466  0.32971321  0.62905241     0.13400
H1893       H  0.52892402  0.36184936  0.50150388     0.26700
H1894       H  0.96893949  0.35891625  0.50151601     0.26700
C1895       C  0.63720940  0.14058201  0.63510276     0.87000
C1896       C  0.65924680  0.11705247  0.61054970    -0.53200
C1897       C  0.63946486  0.09700098  0.58814561     0.10000
C1898       C  0.59957710  0.10225261  0.59271182     0.20900
C1899       C  0.61359577  0.16437198  0.61176953    -0.53900
C1900       C  0.59375417  0.14406882  0.58930540     0.10100
C1901       C  0.61209620  0.11345355  0.65261970    -0.53500
C1902       C  0.59236181  0.09330361  0.63057148     0.10600
H1903       H  0.68768159  0.11580155  0.61124464     0.15100
H1904       H  0.58344966  0.08556265  0.57478797     0.00900
H1905       H  0.61269078  0.19417697  0.61292318     0.15500
H1906       H  0.60993017  0.11048951  0.68008547     0.15200
N1907       N  0.50142302  0.44312624  0.64276463    -0.36100
N1908       N  0.94859953  0.99993694  0.64697821    -0.56600
N1909       N  0.50206815  0.05599864  0.64229281    -0.36100
N1910       N  0.55479247  0.99962899  0.64641934    -0.56600
C1911       C  0.97259720  0.42293822  0.65016446     0.27500
C1912       C  0.52935599  0.42298212  0.65229693     0.27300
C1913       C  0.97409991  0.07739470  0.64884035     0.27500
C1914       C  0.53088819  0.07734007  0.64602052     0.27500
C1915       C  0.92741034  0.47020147  0.64966711     0.36100
C1916       C  0.92808994  0.02956060  0.65193759     0.36100
C1917       C  0.57542973  0.47022537  0.65169637     0.36100
C1918       C  0.57593339  0.02945617  0.64869589     0.36100
C1919       C  0.98211921  0.39046914  0.66578689    -0.21300
C1920       C  0.51825565  0.39049621  0.66711418    -0.21300
C1921       C  0.98520974  0.11232452  0.65768361    -0.21300
C1922       C  0.52128255  0.11227697  0.65595904    -0.21300
C1923       C  0.89431849  0.48067499  0.65969029    -0.22400
C1924       C  0.89476370  0.01851342  0.66117311    -0.22400
C1925       C  0.60877741  0.48139421  0.66058626    -0.22400
C1926       C  0.60907518  0.01915436  0.65879207    -0.22400
C1927       C  0.93794075  0.43372303  0.64413226    -0.17700
C1928       C  0.56457589  0.43342589  0.64838551    -0.17700
C1929       C  0.56565934  0.06578831  0.64176767    -0.17700
C1930       C  0.93879902  0.06634014  0.64707955    -0.17700
H1931       H  0.96477546  0.36956208  0.67607458     0.15200
H1932       H  0.53454584  0.36953902  0.67842826     0.15200
H1933       H  0.96895184  0.13494512  0.66577778     0.15200
H1934       H  0.53859917  0.13479978  0.66273241     0.15200
H1935       H  0.87268022  0.46276507  0.66650336     0.13400
H1936       H  0.87340979  0.03600159  0.66894862     0.13400
H1937       H  0.63014230  0.46403196  0.66858752     0.13400
H1938       H  0.63071314  0.03715329  0.66535858     0.13400
H1939       H  0.50197730  0.46706627  0.62826659     0.26700
H1940       H  0.50148713  0.02991297  0.63165143     0.26700
N1941       N  0.64251531  0.44809526  0.50147472    -0.36100
N1942       N  0.65117124  0.00395029  0.94998677    -0.56600
N1943       N  0.64985384  0.06069118  0.50147254    -0.36100
N1944       N  0.65121094  0.00393402  0.55294380    -0.56600
C1945       C  0.64782212  0.42669565  0.97397244     0.27500
C1946       C  0.64784245  0.42669483  0.52897272     0.27500
C1947       C  0.65862917  0.08084069  0.97381705     0.27500
C1948       C  0.65864923  0.08083091  0.52913117     0.27500
C1949       C  0.65333540  0.47408262  0.92976560     0.36100
C1950       C  0.65704974  0.03324500  0.92967127     0.36100
C1951       C  0.65338573  0.47408278  0.57317949     0.36100
C1952       C  0.65709768  0.03322583  0.57326448     0.36100
C1953       C  0.65735856  0.39178600  0.98398108    -0.21300
C1954       C  0.65737258  0.39178563  0.51895460    -0.21300
C1955       C  0.67448228  0.11333901  0.98388243    -0.21300
C1956       C  0.67449487  0.11333280  0.51907080    -0.21300
C1957       C  0.66416617  0.48413595  0.89756099    -0.22400
C1958       C  0.66637583  0.02191265  0.89744925    -0.22400
C1959       C  0.66423137  0.48414155  0.60538067    -0.22400
C1960       C  0.66644376  0.02188908  0.60547993    -0.22400
C1961       C  0.64532141  0.43798411  0.94003038    -0.17700
C1962       C  0.64536495  0.43798323  0.56291760    -0.17700
C1963       C  0.65370812  0.07003355  0.56316344    -0.17700
C1964       C  0.65366957  0.07005164  0.93978264    -0.17700
H1965       H  0.66514151  0.36928825  0.96770888     0.15200
H1966       H  0.66516745  0.36928778  0.53521969     0.15200
H1967       H  0.68575762  0.13426041  0.96751972     0.15200
H1968       H  0.68578044  0.13424939  0.53543627     0.15200
H1969       H  0.67077560  0.46598267  0.87677705     0.13400
H1970       H  0.67488395  0.03913926  0.87652785     0.13400
H1971       H  0.67085119  0.46599188  0.62616308     0.13400
H1972       H  0.67496213  0.03911312  0.62640247     0.13400
H1973       H  0.63179481  0.47424724  0.50147821     0.26700
H1974       H  0.63474239  0.03678431  0.50147220     0.26700
N1975       N  0.50471371  0.15583890  0.55382295    -0.36100
N1976       N  0.95120199  0.15843398  0.50150811    -0.56600
N1977       N  0.50469499  0.15588524  0.94916947    -0.36100
N1978       N  0.55819672  0.16182546  0.50148892    -0.56600
C1979       C  0.97593202  0.16162449  0.57323399     0.27500
C1980       C  0.53310743  0.16391541  0.57321258     0.27500
C1981       C  0.97590468  0.16168782  0.92977256     0.27500
C1982       C  0.53308060  0.16396630  0.92977507     0.27500
C1983       C  0.92994276  0.15942743  0.52905830     0.36100
C1984       C  0.92993373  0.15945395  0.97396048     0.36100
C1985       C  0.57944899  0.16266336  0.52916016     0.36100
C1986       C  0.57943873  0.16267724  0.97381318     0.36100
C1987       C  0.98604210  0.17481045  0.60477704    -0.21300
C1988       C  0.52226407  0.17625872  0.60476906    -0.21300
C1989       C  0.98600098  0.17489119  0.89823410    -0.21300
C1990       C  0.52222375  0.17633202  0.89823032    -0.21300
C1991       C  0.89570483  0.16469277  0.51902030    -0.22400
C1992       C  0.89569880  0.16470883  0.98400938    -0.22400
C1993       C  0.61375963  0.16763013  0.51903732    -0.22400
C1994       C  0.61375309  0.16763862  0.98393099    -0.22400
C1995       C  0.94084270  0.15525731  0.56315749    -0.17700
C1996       C  0.56845620  0.15921114  0.56348137    -0.17700
C1997       C  0.56843253  0.15924450  0.93949237    -0.17700
C1998       C  0.94082086  0.15530946  0.93985569    -0.17700
H1999       H  0.96899698  0.18327273  0.62531345     0.15200
H2000       H  0.53878654  0.18586547  0.62538677     0.15200
H2001       H  0.96894684  0.18336504  0.87770750     0.15200
H2002       H  0.53873774  0.18594492  0.87761207     0.15200
H2003       H  0.87335372  0.16917190  0.53537730     0.13400
H2004       H  0.87334186  0.16919946  0.96766005     0.13400
H2005       H  0.63609761  0.17225612  0.53546636     0.13400
H2006       H  0.63608474  0.17227279  0.96749938     0.13400
H2007       H  0.50507664  0.14234841  0.53050847     0.26700
H2008       H  0.50506609  0.14237771  0.97247372     0.26700
C2009       C  0.86734932  0.13913207  0.63009659     0.87000
C2010       C  0.89114659  0.11450451  0.65209067    -0.53200
C2011       C  0.91321849  0.09322359  0.63314846     0.10000
C2012       C  0.90936665  0.09887894  0.59441943     0.20900
C2013       C  0.89256080  0.16177508  0.60737256    -0.53900
C2014       C  0.91490869  0.14060770  0.58865748     0.10100
C2015       C  0.84819297  0.11272103  0.60594975    -0.53500
C2016       C  0.87010975  0.09144966  0.58739162     0.10600
H2017       H  0.89042298  0.11372463  0.67973124     0.15100
H2018       H  0.92716379  0.08145760  0.57898933     0.00900
H2019       H  0.89241165  0.19159200  0.60586210     0.15500
H2020       H  0.81982174  0.11070999  0.60387567     0.15200
N2021       N  0.86122430  0.05358064  0.50154119    -0.36100
N2022       N  0.85357025  0.49744657  0.55323632    -0.56600
N2023       N  0.85359839  0.44122464  0.50153922    -0.36100
N2024       N  0.85359567  0.49745255  0.94983805    -0.56600
C2025       C  0.85273597  0.07388185  0.52897211     0.27500
C2026       C  0.85275793  0.07389402  0.97410852     0.27500
C2027       C  0.84864440  0.41981762  0.52923554     0.27500
C2028       C  0.84862840  0.41982034  0.97384726     0.27500
C2029       C  0.85110320  0.02723900  0.57343720     0.36100
C2030       C  0.84739178  0.46808201  0.57334542     0.36100
C2031       C  0.85113973  0.02725369  0.92964009     0.36100
C2032       C  0.84739988  0.46808467  0.92973437     0.36100
C2033       C  0.83743689  0.10644499  0.51904386    -0.21300
C2034       C  0.83744893  0.10645232  0.98403809    -0.21300
C2035       C  0.83939473  0.38469352  0.51911607    -0.21300
C2036       C  0.83938100  0.38469590  0.98396398    -0.21300
C2037       C  0.84002962  0.01717204  0.60553951    -0.22400
C2038       C  0.83775773  0.47938282  0.60552356    -0.22400
C2039       C  0.84005816  0.01718848  0.89753788    -0.22400
C2040       C  0.83778389  0.47937895  0.89754931    -0.22400
C2041       C  0.85775388  0.06337653  0.56274412    -0.17700
C2042       C  0.85778642  0.06339241  0.94033572    -0.17700
C2043       C  0.85171639  0.43130607  0.93972746    -0.17700
C2044       C  0.85173450  0.43130376  0.56335653    -0.17700
H2045       H  0.82638893  0.12734308  0.53536346     0.15200
H2046       H  0.82640767  0.12735378  0.96771917     0.15200
H2047       H  0.83210930  0.36194571  0.53546077     0.15200
H2048       H  0.83208743  0.36194916  0.96761777     0.15200
H2049       H  0.83301137  0.03531872  0.62620327     0.13400
H2050       H  0.82913689  0.46211715  0.62637378     0.13400
H2051       H  0.83303929  0.03533620  0.87687654     0.13400
H2052       H  0.82915318  0.46211049  0.87670181     0.13400
H2053       H  0.87574152  0.02944941  0.50154381     0.26700
H2054       H  0.86414614  0.46750779  0.50153906     0.26700
C2055       C  0.84489890  0.33688032  0.84595419    -0.12700
C2056       C  0.82785406  0.31835164  0.82649290    -0.14300
C2057       C  0.84216230  0.16129064  0.85373981    -0.12700
C2058       C  0.81982044  0.17871351  0.83940443    -0.14300
C2059       C  0.67961076  0.31799177  0.83997905    -0.12700
C2060       C  0.65988161  0.33731786  0.85550723    -0.14300
C2061       C  0.84497783  0.33687276  0.65712937    -0.12700
C2062       C  0.82793101  0.31834662  0.67659000    -0.14300
C2063       C  0.67454565  0.17721453  0.82051042    -0.12700
C2064       C  0.65827845  0.16103550  0.84247672    -0.14300
C2065       C  0.65997421  0.33732492  0.64743402    -0.12700
C2066       C  0.67970055  0.31799397  0.66296211    -0.14300
C2067       C  0.84226135  0.16129605  0.64934156    -0.12700
C2068       C  0.81991912  0.17872100  0.66367302    -0.14300
C2069       C  0.67460484  0.17719848  0.68244056    -0.12700
C2070       C  0.65833613  0.16101522  0.66047509    -0.14300
O2071       O  0.71478088  0.76724449  0.17670903    -0.79600
O2072       O  0.77565341  0.79063915  0.30956951    -0.79600
O2073       O  0.69926268  0.80554955  0.28592480    -0.79600
O2074       O  0.82292014  0.77204025  0.21756487    -0.79600
O2075       O  0.71471309  0.76725903  0.32625202    -0.79700
O2076       O  0.77570885  0.79063122  0.19345225    -0.79600
O2077       O  0.82288665  0.77204081  0.28550748    -0.79600
O2078       O  0.69929402  0.80554264  0.21701824    -0.79600
C2079       C  0.69954370  0.79642019  0.18614035     1.10100
C2080       C  0.80790795  0.79340829  0.30572752     1.10000
C2081       C  0.69948232  0.79643154  0.31680262     1.10100
C2082       C  0.80796097  0.79340022  0.19732362     1.10000
O2083       O  0.77452748  0.72207794  0.16590924    -0.79600
O2084       O  0.72511386  0.69769939  0.29176357    -0.79700
O2085       O  0.67719914  0.72959170  0.21659851    -0.79600
O2086       O  0.79367304  0.69839400  0.28843272    -0.79600
O2087       O  0.77445348  0.72208596  0.33711365    -0.79600
O2088       O  0.72515155  0.69769363  0.21121393    -0.79600
O2089       O  0.79371286  0.69839237  0.21460516    -0.79600
O2090       O  0.67716596  0.72959547  0.28633407    -0.79600
Co2091     Co  0.75275457  0.74368281  0.20465970     1.51500
Co2092     Co  0.75271187  0.74368903  0.29834227     1.51700
Co2093     Co  0.69223557  0.76718900  0.25147079     1.51600
Co2094     Co  0.80130662  0.73768958  0.25152451     1.51500
O2095       O  0.74626324  0.75965730  0.25149752    -1.41500
C2096       C  0.79527638  0.70089827  0.18181713     1.10000
C2097       C  0.69271907  0.70124934  0.29703834     1.10100
C2098       C  0.69276018  0.70124284  0.20591378     1.10100
C2099       C  0.79520904  0.70089812  0.32122266     1.10000
C2100       C  0.86644852  0.85896490  0.36931322     0.87000
C2101       C  0.89166707  0.88486415  0.35023105    -0.53200
C2102       C  0.91191312  0.90588700  0.37120617     0.10000
C2103       C  0.90500628  0.89875890  0.40949816     0.20900
C2104       C  0.88977315  0.83601886  0.39327181    -0.53900
C2105       C  0.90990700  0.85701071  0.41464937     0.10100
C2106       C  0.84496472  0.88393404  0.39299640    -0.53500
C2107       C  0.86532832  0.90477908  0.41420771     0.10600
H2108       H  0.89319686  0.88667167  0.32264720     0.15100
H2109       H  0.92156725  0.91593683  0.42664441     0.00900
H2110       H  0.89048467  0.80617012  0.39318256     0.15500
H2111       H  0.81651244  0.88502265  0.39304437     0.15200
C2112       C  0.86727494  0.63912899  0.37295131     0.87000
C2113       C  0.84815269  0.61272306  0.39712367    -0.53200
C2114       C  0.87009626  0.59146527  0.41566787     0.10000
C2115       C  0.90934295  0.59890189  0.40859817     0.20900
C2116       C  0.89250702  0.66178801  0.39564519    -0.53900
C2117       C  0.91488058  0.64063477  0.41434441     0.10100
C2118       C  0.89105235  0.61449834  0.35094038    -0.53500
C2119       C  0.91315116  0.59323094  0.36986628     0.10600
H2120       H  0.81978428  0.61070311  0.39922190     0.15100
H2121       H  0.92716269  0.58149241  0.42401560     0.00900
H2122       H  0.89234755  0.69160514  0.39715410     0.15500
H2123       H  0.89029866  0.61370892  0.32330046     0.15200
C2124       C  0.63569424  0.86096356  0.37386148     0.87000
C2125       C  0.65502987  0.88858401  0.39671373    -0.53200
C2126       C  0.63309218  0.91054010  0.41465801     0.10000
C2127       C  0.59383390  0.90250316  0.40823845     0.20900
C2128       C  0.61107813  0.83925147  0.39752909    -0.53900
C2129       C  0.58897624  0.86101965  0.41557477     0.10100
C2130       C  0.61147449  0.88435362  0.35108306    -0.53500
C2131       C  0.58942555  0.90634137  0.36934741     0.10600
H2132       H  0.68339777  0.89033371  0.39893183     0.15100
H2133       H  0.57599472  0.92031908  0.42322624     0.00900
H2134       H  0.61102186  0.80947326  0.39977286     0.15500
H2135       H  0.61210788  0.88403184  0.32343322     0.15200
C2136       C  0.63715457  0.64060808  0.36784884     0.87000
C2137       C  0.61203542  0.61347782  0.35033278    -0.53200
C2138       C  0.59230407  0.59333046  0.37238164     0.10000
C2139       C  0.59952722  0.60228624  0.41024146     0.20900
C2140       C  0.61354711  0.66440238  0.39118441    -0.53900
C2141       C  0.59370868  0.64410391  0.41365000     0.10100
C2142       C  0.65919444  0.61707884  0.39240193    -0.53500
C2143       C  0.63941512  0.59703164  0.41480736     0.10600
H2144       H  0.60986370  0.61051110  0.32286708     0.15100
H2145       H  0.58340203  0.58560007  0.42816587     0.00900
H2146       H  0.61264681  0.69420756  0.39003355     0.15500
H2147       H  0.68762890  0.61582324  0.39170442     0.15200
N2148       N  0.50134581  0.94314066  0.36021952    -0.36100
N2149       N  0.94852794  0.49994973  0.35602351    -0.56600
N2150       N  0.50200180  0.55601942  0.36067371    -0.36100
N2151       N  0.55472235  0.49965174  0.35654829    -0.56600
C2152       C  0.97251356  0.92295273  0.35283896     0.27500
C2153       C  0.52926984  0.92298831  0.35068164     0.27500
C2154       C  0.97402735  0.57741572  0.35415287     0.27500
C2155       C  0.53081865  0.57736695  0.35695648     0.27500
C2156       C  0.92734029  0.97022513  0.35331382     0.36100
C2157       C  0.92801977  0.52957238  0.35105372     0.36100
C2158       C  0.57535620  0.97022256  0.35128080     0.36100
C2159       C  0.57586105  0.52947931  0.35425248     0.36100
C2160       C  0.98202112  0.89047419  0.33722245    -0.21300
C2161       C  0.51815659  0.89049554  0.33587979    -0.21300
C2162       C  0.98512952  0.61235507  0.34533732    -0.21300
C2163       C  0.52120378  0.61231098  0.34705082    -0.21300
C2164       C  0.89425408  0.98070119  0.34327067    -0.22400
C2165       C  0.89469065  0.51852056  0.34182477    -0.22400
C2166       C  0.60870310  0.98138133  0.34238364    -0.22400
C2167       C  0.60899044  0.51917396  0.34412402    -0.22400
C2168       C  0.93786350  0.93374897  0.35887923    -0.17700
C2169       C  0.56449250  0.93342477  0.35458749    -0.17700
C2170       C  0.56559410  0.56581466  0.36118821    -0.17700
C2171       C  0.93872757  0.56635402  0.35591647    -0.17700
H2172       H  0.96466817  0.86956551  0.32694714     0.15200
H2173       H  0.53443718  0.86952992  0.32456602     0.15200
H2174       H  0.96886492  0.63497994  0.33726682     0.15200
H2175       H  0.53851499  0.63484078  0.34028954     0.15200
H2176       H  0.87261093  0.96279352  0.33646152     0.13400
H2177       H  0.87333289  0.53600497  0.33405078     0.13400
H2178       H  0.63005976  0.96401155  0.33437678     0.13400
H2179       H  0.63062267  0.53717066  0.33753938     0.13400
H2180       H  0.50191140  0.96708584  0.37471245     0.26700
H2181       H  0.50142716  0.52992583  0.37129340     0.26700
C2182       C  0.86651809  0.85893666  0.13373698     0.87000
C2183       C  0.84501871  0.88391559  0.11007442    -0.53200
C2184       C  0.86536646  0.90476473  0.08885724     0.10000
C2185       C  0.90504770  0.89873582  0.09353911     0.20900
C2186       C  0.88982277  0.83599345  0.10975611    -0.53900
C2187       C  0.90994356  0.85698865  0.08837351     0.10100
C2188       C  0.89175642  0.88482894  0.15281065    -0.53500
C2189       C  0.91198788  0.90585308  0.13182763     0.10600
H2190       H  0.81656652  0.88500612  0.11004325     0.15100
H2191       H  0.92159653  0.91591593  0.07638820     0.00900
H2192       H  0.89053445  0.80614475  0.10983814     0.15500
H2193       H  0.89330720  0.88663346  0.18039394     0.15200
C2194       C  0.63577758  0.86094817  0.12905386     0.87000
C2195       C  0.61157174  0.88434344  0.15184199    -0.53200
C2196       C  0.58951056  0.90632745  0.13358682     0.10000
C2197       C  0.59389765  0.90248533  0.09469487     0.20900
C2198       C  0.61114410  0.83923400  0.10539815    -0.53900
C2199       C  0.58903055  0.86100186  0.08736423     0.10100
C2200       C  0.65510061  0.88856327  0.10619179    -0.53500
C2201       C  0.63315314  0.91051832  0.08825693     0.10600
H2202       H  0.61221970  0.88402404  0.17949155     0.15100
H2203       H  0.57605027  0.92030005  0.07971468     0.00900
H2204       H  0.61108320  0.80945544  0.10315550     0.15500
H2205       H  0.68346732  0.89031214  0.10396277     0.15200
N2206       N  0.55257580  0.84776220  0.00147931    -0.36100
N2207       N  0.49918067  0.84135660  0.44981194    -0.56600
N2208       N  0.94534728  0.84448036  0.00150399    -0.36100
N2209       N  0.49920564  0.84135882  0.05317292    -0.56600
C2210       C  0.57244131  0.84052775  0.47390213     0.27500
C2211       C  0.57245458  0.84051603  0.02904647     0.27500
C2212       C  0.92561975  0.83668018  0.47375125     0.27500
C2213       C  0.92563315  0.83667310  0.02926083     0.27500
C2214       C  0.52753109  0.84185260  0.42918805     0.36100
C2215       C  0.97100062  0.83929753  0.42906363     0.36100
C2216       C  0.52757026  0.84184932  0.07378275     0.36100
C2217       C  0.97103770  0.83929515  0.07393315     0.36100
C2218       C  0.60469983  0.82728394  0.48392248    -0.21300
C2219       C  0.60470841  0.82727656  0.01900939    -0.21300
C2220       C  0.89352052  0.82258917  0.48389772    -0.21300
C2221       C  0.89352881  0.82258555  0.01911890    -0.21300
C2222       C  0.51755038  0.83639124  0.39584151    -0.22400
C2223       C  0.98154584  0.83478324  0.39574313    -0.22400
C2224       C  0.51761009  0.83638399  0.10713271    -0.22400
C2225       C  0.98160467  0.83477695  0.10724777    -0.22400
C2226       C  0.56237444  0.84669633  0.44006184    -0.17700
C2227       C  0.56240892  0.84668079  0.06289231    -0.17700
C2228       C  0.93591213  0.84225909  0.06341272    -0.17700
C2229       C  0.93588344  0.84227345  0.43959845    -0.17700
H2230       H  0.62578761  0.81815526  0.46763224     0.15200
H2231       H  0.62580543  0.81814441  0.03528882     0.15200
H2232       H  0.87265388  0.81263761  0.46756102     0.15200
H2233       H  0.87266988  0.81262913  0.03545821     0.15200
H2234       H  0.53468590  0.83255338  0.37423782     0.13400
H2235       H  0.96486709  0.82973055  0.37395982     0.13400
H2236       H  0.53475947  0.83253892  0.12872692     0.13400
H2237       H  0.96494010  0.82971932  0.12903757     0.13400
H2238       H  0.52894405  0.86183352  0.00148621     0.26700
H2239       H  0.96895048  0.85894137  0.00150162     0.26700
C2240       C  0.63719898  0.64060586  0.13509557     0.87000
C2241       C  0.65923513  0.61707994  0.11053920    -0.53200
C2242       C  0.63945245  0.59702804  0.08813654     0.10000
C2243       C  0.59956462  0.60227526  0.09270752     0.20900
C2244       C  0.61358038  0.66439522  0.11176580    -0.53900
C2245       C  0.59373772  0.64409087  0.08930276     0.10100
C2246       C  0.61209002  0.61347460  0.15261433    -0.53500
C2247       C  0.59235432  0.59332411  0.13056785     0.10600
H2248       H  0.68767001  0.61582910  0.11123292     0.15100
H2249       H  0.58343669  0.58558423  0.07478496     0.00900
H2250       H  0.61267453  0.69420022  0.11291961     0.15500
H2251       H  0.60992691  0.61050999  0.18008017     0.15200
N2252       N  0.50142550  0.94311539  0.14275483    -0.36100
N2253       N  0.94859708  0.49995060  0.14696725    -0.56600
N2254       N  0.50206177  0.55601680  0.14228054    -0.36100
N2255       N  0.55478785  0.49965215  0.14643798    -0.56600
C2256       C  0.97259993  0.92293040  0.15016217     0.27500
C2257       C  0.52935894  0.92296673  0.15227762     0.27300
C2258       C  0.97409163  0.57741028  0.14882673     0.27500
C2259       C  0.53087972  0.57736042  0.14601117     0.27500
C2260       C  0.92741746  0.97019731  0.14968995     0.36100
C2261       C  0.92808353  0.52957323  0.15191583     0.36100
C2262       C  0.57543851  0.97020398  0.15166420     0.36100
C2263       C  0.57592586  0.52948172  0.14871355     0.36100
C2264       C  0.98212272  0.89045914  0.16578007    -0.21300
C2265       C  0.51825941  0.89048142  0.16709685    -0.21300
C2266       C  0.98519819  0.61234075  0.15767207    -0.21300
C2267       C  0.52127111  0.61229633  0.15594962    -0.21300
C2268       C  0.89433084  0.98067267  0.15972837    -0.22400
C2269       C  0.89475378  0.51852539  0.16113812    -0.22400
C2270       C  0.60879091  0.98136670  0.16054335    -0.22400
C2271       C  0.60906413  0.51918593  0.15882658    -0.22400
C2272       C  0.93794319  0.93371960  0.14414064    -0.17700
C2273       C  0.56457859  0.93340631  0.14835593    -0.17700
C2274       C  0.56565190  0.56580987  0.14176674    -0.17700
C2275       C  0.93879195  0.56635305  0.14706155    -0.17700
H2276       H  0.96477948  0.86955356  0.17607139     0.15200
H2277       H  0.53455042  0.86952175  0.17840564     0.15200
H2278       H  0.96893809  0.63495970  0.16576619     0.15200
H2279       H  0.53858592  0.63481981  0.16272577     0.15200
H2280       H  0.87269298  0.96276400  0.16654591     0.13400
H2281       H  0.87339649  0.53601307  0.16890527     0.13400
H2282       H  0.63015613  0.96399993  0.16853492     0.13400
H2283       H  0.63069895  0.53718826  0.16539459     0.13400
H2284       H  0.50197774  0.96705636  0.12825814     0.26700
H2285       H  0.50148415  0.52993089  0.13163898     0.26700
N2286       N  0.64251714  0.94808665  0.00146131    -0.36100
N2287       N  0.65116643  0.50395557  0.44999446    -0.56600
N2288       N  0.64984254  0.56070188  0.00147138    -0.36100
N2289       N  0.65120521  0.50395268  0.05295079    -0.56600
C2290       C  0.64781782  0.92668934  0.47395359     0.27500
C2291       C  0.64783804  0.92668114  0.02895672     0.27500
C2292       C  0.65862369  0.58084653  0.47381620     0.27500
C2293       C  0.65864359  0.58084406  0.02912679     0.27500
C2294       C  0.65335295  0.97408353  0.42975548     0.36100
C2295       C  0.65703357  0.53324868  0.42967359     0.36100
C2296       C  0.65340725  0.97406406  0.07316640     0.36100
C2297       C  0.65707940  0.53324916  0.07326918     0.36100
C2298       C  0.65733874  0.89177321  0.48395737    -0.21300
C2299       C  0.65735058  0.89176784  0.01893462    -0.21300
C2300       C  0.67448577  0.61334103  0.48387944    -0.21300
C2301       C  0.67449762  0.61334000  0.01906154    -0.21300
C2302       C  0.66419576  0.98414085  0.39755548    -0.22400
C2303       C  0.66634856  0.52191396  0.39744945    -0.22400
C2304       C  0.66426933  0.98411681  0.10536431    -0.22400
C2305       C  0.66640940  0.52192006  0.10549126    -0.22400
C2306       C  0.64532586  0.93798550  0.44001325    -0.17700
C2307       C  0.64537300  0.93796784  0.06290276    -0.17700
C2308       C  0.65369570  0.57005481  0.06316020    -0.17700
C2309       C  0.65365916  0.57005651  0.43978291    -0.17700
H2310       H  0.66511449  0.86927528  0.46768211     0.15200
H2311       H  0.66513852  0.86926523  0.03519716     0.15200
H2312       H  0.68576563  0.63425868  0.46751537     0.15200
H2313       H  0.68578697  0.63425738  0.03542378     0.15200
H2314       H  0.67080872  0.96599049  0.37677029     0.13400
H2315       H  0.67484999  0.53913915  0.37652465     0.13400
H2316       H  0.67089579  0.96596366  0.12614207     0.13400
H2317       H  0.67491883  0.53914923  0.12641346     0.13400
H2318       H  0.63180815  0.97424351  0.00146860     0.26700
H2319       H  0.63472548  0.53679858  0.00147505     0.26700
N2320       N  0.50469911  0.65585485  0.05381340    -0.36100
N2321       N  0.95119013  0.65843687  0.00149318    -0.56600
N2322       N  0.50468828  0.65588983  0.44915661    -0.36100
N2323       N  0.55818218  0.66184018  0.00148177    -0.56600
C2324       C  0.97591541  0.66163891  0.07322173     0.27500
C2325       C  0.53309080  0.66393453  0.07320479     0.27500
C2326       C  0.97589909  0.66168531  0.42975672     0.27500
C2327       C  0.53307440  0.66397316  0.42976424     0.27500
C2328       C  0.92992966  0.65943312  0.02904222     0.36100
C2329       C  0.92992528  0.65944987  0.47394115     0.36100
C2330       C  0.57943411  0.66267391  0.02915385     0.36100
C2331       C  0.57942803  0.66268311  0.47380711     0.36100
C2332       C  0.98602191  0.67482649  0.10476543    -0.21300
C2333       C  0.52224395  0.67627784  0.10476023    -0.21300
C2334       C  0.98599626  0.67488684  0.39821776    -0.21300
C2335       C  0.52221890  0.67633348  0.39821707    -0.21300
C2336       C  0.89569147  0.66469192  0.01900202    -0.22400
C2337       C  0.89568859  0.66470129  0.48398577    -0.22400
C2338       C  0.61374646  0.66762558  0.01903101    -0.22400
C2339       C  0.61374275  0.66763138  0.48392847    -0.22400
C2340       C  0.94082776  0.65526692  0.06314224    -0.17700
C2341       C  0.56844040  0.65923048  0.06347603    -0.17700
C2342       C  0.56842522  0.65925206  0.43948455    -0.17700
C2343       C  0.94081607  0.65530067  0.43983817    -0.17700
H2344       H  0.96897446  0.68328712  0.12530059     0.15200
H2345       H  0.53876407  0.68588572  0.12537929     0.15200
H2346       H  0.96894271  0.68335513  0.37768859     0.15200
H2347       H  0.53873362  0.68594513  0.37759875     0.15200
H2348       H  0.87333918  0.66917057  0.03535743     0.13400
H2349       H  0.87333300  0.66918719  0.46763361     0.13400
H2350       H  0.63608552  0.67224483  0.03546009     0.13400
H2351       H  0.63607754  0.67225657  0.46749893     0.13400
H2352       H  0.50506451  0.64236244  0.03050003     0.26700
H2353       H  0.50505896  0.64238350  0.47246145     0.26700
C2354       C  0.86733906  0.63913951  0.13008366     0.87000
C2355       C  0.89114009  0.61451516  0.15207602    -0.53200
C2356       C  0.91321033  0.59323491  0.13313190     0.10000
C2357       C  0.90935297  0.59888722  0.09440316     0.20900
C2358       C  0.89254635  0.66178306  0.10735640    -0.53900
C2359       C  0.91489313  0.64061603  0.08864021     0.10100
C2360       C  0.84818026  0.61272667  0.10594064    -0.53500
C2361       C  0.87009505  0.59145580  0.08738032     0.10600
H2362       H  0.89042016  0.61373665  0.17971679     0.15100
H2363       H  0.92714908  0.58146592  0.07897183     0.00900
H2364       H  0.89239684  0.69159992  0.10584620     0.15500
H2365       H  0.81980871  0.61071432  0.10387046     0.15200
N2366       N  0.86120518  0.55357792  0.00153283    -0.36100
N2367       N  0.85358471  0.99744847  0.05323907    -0.56600
N2368       N  0.85359490  0.94122707  0.00153796    -0.36100
N2369       N  0.85360723  0.99746134  0.44983998    -0.56600
C2370       C  0.85271847  0.57388297  0.02896196     0.27500
C2371       C  0.85274280  0.57389007  0.47409710     0.27500
C2372       C  0.84864207  0.91981922  0.02923365     0.27500
C2373       C  0.84862983  0.91982474  0.47383826     0.27500
C2374       C  0.85108143  0.52724591  0.07343178     0.36100
C2375       C  0.84741080  0.96808256  0.07334797     0.36100
C2376       C  0.85113008  0.52724600  0.42963266     0.36100
C2377       C  0.84741242  0.96809697  0.42973132     0.36100
C2378       C  0.83741993  0.60644517  0.01903022    -0.21300
C2379       C  0.83743308  0.60644902  0.48402373    -0.21300
C2380       C  0.83939411  0.88469480  0.01911271    -0.21300
C2381       C  0.83938636  0.88469772  0.48395109    -0.21300
C2382       C  0.83999220  0.51718327  0.10553061    -0.22400
C2383       C  0.83779726  0.97938159  0.10553228    -0.22400
C2384       C  0.84004405  0.51717681  0.39753281    -0.22400
C2385       C  0.83780488  0.97939718  0.39754581    -0.22400
C2386       C  0.85773615  0.56338136  0.06273539    -0.17700
C2387       C  0.85777553  0.56338619  0.44032505    -0.17700
C2388       C  0.85172130  0.93131563  0.43971980    -0.17700
C2389       C  0.85174029  0.93130359  0.06335486    -0.17700
H2390       H  0.82637270  0.62734546  0.03534786     0.15200
H2391       H  0.82639457  0.62735022  0.46770263     0.15200
H2392       H  0.83211269  0.86194486  0.03545649     0.15200
H2393       H  0.83209775  0.86195138  0.46760224     0.15200
H2394       H  0.83296409  0.53533229  0.12618956     0.13400
H2395       H  0.82918272  0.96211499  0.12638420     0.13400
H2396       H  0.83302235  0.53532186  0.37687041     0.13400
H2397       H  0.82917635  0.96213268  0.37669479     0.13400
H2398       H  0.87572236  0.52944688  0.00153805     0.26700
H2399       H  0.86414264  0.96751013  0.00153948     0.26700
C2400       C  0.84490686  0.83689012  0.34594164    -0.12700
C2401       C  0.82786468  0.81835740  0.32648071    -0.14300
C2402       C  0.84216424  0.66128291  0.35372357    -0.12700
C2403       C  0.81982397  0.67871287  0.33939373    -0.14300
C2404       C  0.67962156  0.81800306  0.33996560    -0.12700
C2405       C  0.65988909  0.83732974  0.35548762    -0.14300
C2406       C  0.84498666  0.83686106  0.15711617    -0.12700
C2407       C  0.82793821  0.81833715  0.17657724    -0.14300
C2408       C  0.67454950  0.67722087  0.32051170    -0.12700
C2409       C  0.65827936  0.66103979  0.34247539    -0.14300
C2410       C  0.65998134  0.83731611  0.14742176    -0.12700
C2411       C  0.67970720  0.81799047  0.16295463    -0.14300
C2412       C  0.84225350  0.66130191  0.14933029    -0.12700
C2413       C  0.81991195  0.67872443  0.16366347    -0.14300
C2414       C  0.67460298  0.67721009  0.18243436    -0.12700
C2415       C  0.65832924  0.66103560  0.16046710    -0.14300
O2416       O  0.71478030  0.76724210  0.67670852    -0.79600
O2417       O  0.77565179  0.79063699  0.80956962    -0.79600
O2418       O  0.69926278  0.80554838  0.78592439    -0.79600
O2419       O  0.82291919  0.77203808  0.71756550    -0.79600
O2420       O  0.71471157  0.76725782  0.82625209    -0.79700
O2421       O  0.77570795  0.79062749  0.69345172    -0.79600
O2422       O  0.82288532  0.77203907  0.78550788    -0.79600
O2423       O  0.69929474  0.80554090  0.71701767    -0.79600
C2424       C  0.69954421  0.79641853  0.68613974     1.10100
C2425       C  0.80790632  0.79340638  0.80572786     1.10000
C2426       C  0.69948174  0.79643075  0.81680234     1.10100
C2427       C  0.80795991  0.79339725  0.69732366     1.10000
O2428       O  0.77452629  0.72207419  0.66590952    -0.79600
O2429       O  0.72511164  0.69769736  0.79176474    -0.79700
O2430       O  0.67719816  0.72959029  0.71659818    -0.79600
O2431       O  0.79367262  0.69839199  0.78843384    -0.79600
O2432       O  0.77445153  0.72208430  0.83711423    -0.79600
O2433       O  0.72514970  0.69769070  0.71121362    -0.79600
O2434       O  0.79371293  0.69838966  0.71460557    -0.79600
O2435       O  0.67716445  0.72959449  0.78633391    -0.79600
Co2436     Co  0.75275335  0.74367947  0.70465959     1.51500
Co2437     Co  0.75271016  0.74368685  0.79834268     1.51700
Co2438     Co  0.69223511  0.76718759  0.75147046     1.51600
Co2439     Co  0.80130590  0.73768733  0.75152508     1.51500
O2440       O  0.74626239  0.75965444  0.75149751    -1.41500
C2441       C  0.79527566  0.70089495  0.68181734     1.10000
C2442       C  0.69271675  0.70124814  0.79703887     1.10100
C2443       C  0.69275837  0.70124088  0.70591348     1.10100
C2444       C  0.79520740  0.70089620  0.82122393     1.10000
C2445       C  0.86644675  0.85896383  0.86931314     0.87000
C2446       C  0.89166471  0.88486287  0.85023000    -0.53200
C2447       C  0.91191105  0.90588634  0.87120434     0.10000
C2448       C  0.90500511  0.89875901  0.90949665     0.20900
C2449       C  0.88977204  0.83601849  0.89327179    -0.53900
C2450       C  0.90990616  0.85701098  0.91464866     0.10100
C2451       C  0.84496325  0.88393330  0.89299632    -0.53500
C2452       C  0.86532720  0.90477895  0.91420688     0.10600
H2453       H  0.89319382  0.88666986  0.82264615     0.15100
H2454       H  0.92156630  0.91593746  0.92664220     0.00900
H2455       H  0.89048365  0.80616977  0.89318314     0.15500
H2456       H  0.81651096  0.88502168  0.89304481     0.15200
C2457       C  0.86727045  0.63912594  0.87295556     0.87000
C2458       C  0.84814739  0.61271849  0.89712590    -0.53200
C2459       C  0.87009046  0.59146004  0.91567000     0.10000
C2460       C  0.90933741  0.59889727  0.90860211     0.20900
C2461       C  0.89250141  0.66178394  0.89565166    -0.53900
C2462       C  0.91487449  0.64062977  0.91435070     0.10100
C2463       C  0.89104908  0.61449680  0.85094439    -0.53500
C2464       C  0.91314739  0.59322862  0.86987007     0.10600
H2465       H  0.81977890  0.61069874  0.89922353     0.15100
H2466       H  0.92715664  0.58148706  0.92401938     0.00900
H2467       H  0.89234227  0.69160102  0.89716131     0.15500
H2468       H  0.89029617  0.61370853  0.82330449     0.15200
C2469       C  0.63569354  0.86096280  0.87386184     0.87000
C2470       C  0.65502851  0.88858347  0.89671451    -0.53200
C2471       C  0.63309026  0.91053824  0.91465961     0.10000
C2472       C  0.59383216  0.90250002  0.90824027     0.20900
C2473       C  0.61107840  0.83924921  0.89752929    -0.53900
C2474       C  0.58897589  0.86101619  0.91557553     0.10100
C2475       C  0.61147257  0.88435262  0.85108426    -0.53500
C2476       C  0.58942309  0.90633909  0.86934945     0.10600
H2477       H  0.68339637  0.89033435  0.89893215     0.15100
H2478       H  0.57599256  0.92031487  0.92322862     0.00900
H2479       H  0.61102300  0.80947100  0.89977229     0.15500
H2480       H  0.61210585  0.88403185  0.82343441     0.15200
C2481       C  0.63715013  0.64060606  0.86784793     0.87000
C2482       C  0.61203088  0.61347614  0.85033126    -0.53200
C2483       C  0.59229986  0.59332783  0.87237977     0.10000
C2484       C  0.59952369  0.60228203  0.91023974     0.20900
C2485       C  0.61354275  0.66439908  0.89118470    -0.53900
C2486       C  0.59370477  0.64409937  0.91364974     0.10100
C2487       C  0.65919059  0.61707629  0.89240005    -0.53500
C2488       C  0.63941176  0.59702807  0.91480505     0.10600
H2489       H  0.60985881  0.61051048  0.82286556     0.15100
H2490       H  0.58339896  0.58559496  0.92816382     0.00900
H2491       H  0.61264215  0.69420431  0.89003501     0.15500
H2492       H  0.68762501  0.61582155  0.89170258     0.15200
N2493       N  0.50134300  0.94313996  0.86021888    -0.36100
N2494       N  0.94852314  0.49994684  0.85603017    -0.56600
N2495       N  0.50199750  0.55601711  0.86067538    -0.36100
N2496       N  0.55471741  0.49964928  0.85654870    -0.56600
C2497       C  0.97251103  0.92295250  0.85283659     0.27500
C2498       C  0.52926747  0.92298737  0.85068263     0.27500
C2499       C  0.97402281  0.57741256  0.85415260     0.27500
C2500       C  0.53081426  0.57736401  0.85695383     0.27500
C2501       C  0.92733722  0.97022459  0.85331114     0.36100
C2502       C  0.92801498  0.52956936  0.85105977     0.36100
C2503       C  0.57535394  0.97022130  0.85128615     0.36100
C2504       C  0.57585630  0.52947660  0.85425158     0.36100
C2505       C  0.98201918  0.89047401  0.83722036    -0.21300
C2506       C  0.51815473  0.89049496  0.83587972    -0.21300
C2507       C  0.98512475  0.61235030  0.84533114    -0.21300
C2508       C  0.52119914  0.61230631  0.84704318    -0.21300
C2509       C  0.89425078  0.98070047  0.84326858    -0.22400
C2510       C  0.89468578  0.51851749  0.84183130    -0.22400
C2511       C  0.60870120  0.98138002  0.84239054    -0.22400
C2512       C  0.60898515  0.51917093  0.84412183    -0.22400
C2513       C  0.93786080  0.93374843  0.85887637    -0.17700
C2514       C  0.56449000  0.93342343  0.85459080    -0.17700
C2515       C  0.56558971  0.56581213  0.86118623    -0.17700
C2516       C  0.93872315  0.56635123  0.85591982    -0.17700
H2517       H  0.96466660  0.86956541  0.82694427     0.15200
H2518       H  0.53443574  0.86952922  0.82456668     0.15200
H2519       H  0.96885989  0.63497399  0.83725831     0.15200
H2520       H  0.53851015  0.63483509  0.84027829     0.15200
H2521       H  0.87260757  0.96279256  0.83645989     0.13400
H2522       H  0.87332812  0.53600189  0.83405690     0.13400
H2523       H  0.63005811  0.96401020  0.83438431     0.13400
H2524       H  0.63061717  0.53716741  0.83753612     0.13400
H2525       H  0.50190779  0.96708499  0.87471216     0.26700
H2526       H  0.50142320  0.52992534  0.87129904     0.26700
C2527       C  0.86651755  0.85893315  0.63373731     0.87000
C2528       C  0.84501858  0.88391266  0.61007499    -0.53200
C2529       C  0.86536656  0.90476183  0.58885812     0.10000
C2530       C  0.90504772  0.89873250  0.59354018     0.20900
C2531       C  0.88982211  0.83598998  0.60975618    -0.53900
C2532       C  0.90994325  0.85698534  0.58837392     0.10100
C2533       C  0.89175600  0.88482484  0.65281145    -0.53500
C2534       C  0.91198764  0.90584922  0.63182888     0.10600
H2535       H  0.81656640  0.88500347  0.61004362     0.15100
H2536       H  0.92159682  0.91591280  0.57638960     0.00900
H2537       H  0.89053343  0.80614128  0.60983776     0.15500
H2538       H  0.89330646  0.88662910  0.68039480     0.15200
C2539       C  0.63577830  0.86094710  0.62905303     0.87000
C2540       C  0.61157208  0.88434243  0.65184088    -0.53200
C2541       C  0.58951023  0.90632550  0.63358541     0.10000
C2542       C  0.59389720  0.90248260  0.59469364     0.20900
C2543       C  0.61114495  0.83923196  0.60539789    -0.53900
C2544       C  0.58903062  0.86099901  0.58736400     0.10100
C2545       C  0.65510054  0.88856217  0.60619027    -0.53500
C2546       C  0.63315245  0.91051628  0.58825511     0.10600
H2547       H  0.61222036  0.88402376  0.67949045     0.15100
H2548       H  0.57604929  0.92029663  0.57971318     0.00900
H2549       H  0.61108471  0.80945329  0.60315561     0.15500
H2550       H  0.68346718  0.89031186  0.60396121     0.15200
N2551       N  0.55257599  0.84776360  0.50147946    -0.36100
N2552       N  0.49917997  0.84135444  0.94981174    -0.56600
N2553       N  0.94534752  0.84447843  0.50150438    -0.36100
N2554       N  0.49920556  0.84135578  0.55317312    -0.56600
C2555       C  0.57244074  0.84052398  0.97390236     0.27500
C2556       C  0.57245454  0.84051494  0.52904623     0.27500
C2557       C  0.92561919  0.83668192  0.97375108     0.27500
C2558       C  0.92563327  0.83667042  0.52926096     0.27500
C2559       C  0.52753052  0.84184964  0.92918795     0.36100
C2560       C  0.97099992  0.83929776  0.92906324     0.36100
C2561       C  0.52757026  0.84184608  0.57378289     0.36100
C2562       C  0.97103761  0.83929247  0.57393339     0.36100
C2563       C  0.60469936  0.82728101  0.98392337    -0.21300
C2564       C  0.60470851  0.82727646  0.51900848    -0.21300
C2565       C  0.89351982  0.82259160  0.98389803    -0.21300
C2566       C  0.89352922  0.82258249  0.51911859    -0.21300
C2567       C  0.51754962  0.83639016  0.89584118    -0.22400
C2568       C  0.98154507  0.83478410  0.89574264    -0.22400
C2569       C  0.51761002  0.83638103  0.60713288    -0.22400
C2570       C  0.98160460  0.83477446  0.60724804    -0.22400
C2571       C  0.56237409  0.84669163  0.94006188    -0.17700
C2572       C  0.56240897  0.84667742  0.56289240    -0.17700
C2573       C  0.93591198  0.84225608  0.56341300    -0.17700
C2574       C  0.93588276  0.84227448  0.93959811    -0.17700
H2575       H  0.62578711  0.81815132  0.96763354     0.15200
H2576       H  0.62580544  0.81814308  0.53528745     0.15200
H2577       H  0.87265295  0.81264006  0.96756165     0.15200
H2578       H  0.87267032  0.81262548  0.53545757     0.15200
H2579       H  0.53468499  0.83255233  0.87423746     0.13400
H2580       H  0.96486622  0.82973286  0.87395917     0.13400
H2581       H  0.53475940  0.83253593  0.62872710     0.13400
H2582       H  0.96494001  0.82971715  0.62903789     0.13400
H2583       H  0.52894409  0.86183459  0.50148721     0.26700
H2584       H  0.96895049  0.85893985  0.50150239     0.26700
C2585       C  0.63719538  0.64060319  0.63509645     0.87000
C2586       C  0.65923194  0.61707680  0.61054094    -0.53200
C2587       C  0.63944959  0.59702409  0.58813870     0.10000
C2588       C  0.59956171  0.60227090  0.59270914     0.20900
C2589       C  0.61357693  0.66439159  0.61176563    -0.53900
C2590       C  0.59373462  0.64408622  0.58930301     0.10100
C2591       C  0.61208630  0.61347226  0.65261567    -0.53500
C2592       C  0.59235086  0.59332097  0.63056957     0.10600
H2593       H  0.68766679  0.61582669  0.61123453     0.15100
H2594       H  0.58343418  0.58557911  0.57478669     0.00900
H2595       H  0.61267092  0.69419655  0.61291840     0.15500
H2596       H  0.60992294  0.61050844  0.68008166     0.15200
N2597       N  0.50142431  0.94311292  0.64275544    -0.36100
N2598       N  0.94859397  0.49994555  0.64695737    -0.56600
N2599       N  0.50205871  0.55601281  0.64227646    -0.36100
N2600       N  0.55478480  0.49964878  0.64643868    -0.56600
C2601       C  0.97259925  0.92292768  0.65016364     0.27500
C2602       C  0.52935842  0.92296458  0.65227689     0.27300
C2603       C  0.97408794  0.57740517  0.64882383     0.27500
C2604       C  0.53087624  0.57735607  0.64601256     0.27500
C2605       C  0.92741551  0.97019367  0.64969218     0.36100
C2606       C  0.92808011  0.52956785  0.65190642     0.36100
C2607       C  0.57543738  0.97020231  0.65166085     0.36100
C2608       C  0.57592273  0.52947835  0.64871482     0.36100
C2609       C  0.98212299  0.89045640  0.66578099    -0.21300
C2610       C  0.51825978  0.89047920  0.66709647    -0.21300
C2611       C  0.98519365  0.61233401  0.65767571    -0.21300
C2612       C  0.52126674  0.61229011  0.65595579    -0.21300
C2613       C  0.89432830  0.98066824  0.65972978    -0.22400
C2614       C  0.89475089  0.51851966  0.66112986    -0.22400
C2615       C  0.60878979  0.98136555  0.66053925    -0.22400
C2616       C  0.60906069  0.51918268  0.65882877    -0.22400
C2617       C  0.93794217  0.93371621  0.64414257    -0.17700
C2618       C  0.56457786  0.93340449  0.64835385    -0.17700
C2619       C  0.56564868  0.56580645  0.64176856    -0.17700
C2620       C  0.93878851  0.56634793  0.64705477    -0.17700
H2621       H  0.96478047  0.86955048  0.67607267     0.15200
H2622       H  0.53455154  0.86951969  0.67840463     0.15200
H2623       H  0.96893287  0.63495143  0.66577211     0.15200
H2624       H  0.53858090  0.63481269  0.66273628     0.15200
H2625       H  0.87269059  0.96275909  0.66654637     0.13400
H2626       H  0.87339379  0.53600713  0.66889820     0.13400
H2627       H  0.63015534  0.96399916  0.66853055     0.13400
H2628       H  0.63069534  0.53718519  0.66539735     0.13400
H2629       H  0.50197554  0.96705403  0.62825871     0.26700
H2630       H  0.50148205  0.52992872  0.63163089     0.26700
N2631       N  0.64251752  0.94808661  0.50145970    -0.36100
N2632       N  0.65116235  0.50395314  0.94999380    -0.56600
N2633       N  0.64984245  0.56070186  0.50147291    -0.36100
N2634       N  0.65120147  0.50395002  0.55295127    -0.56600
C2635       C  0.64781557  0.92668863  0.97395537     0.27500
C2636       C  0.64783752  0.92668035  0.52895488     0.27500
C2637       C  0.65862285  0.58084521  0.97381357     0.27500
C2638       C  0.65864293  0.58084244  0.52912936     0.27500
C2639       C  0.65335069  0.97408199  0.92975675     0.36100
C2640       C  0.65702972  0.53324559  0.92967224     0.36100
C2641       C  0.65340541  0.97406247  0.57316506     0.36100
C2642       C  0.65707606  0.53324577  0.57327031     0.36100
C2643       C  0.65733629  0.89177257  0.98395948    -0.21300
C2644       C  0.65735139  0.89176755  0.51893251    -0.21300
C2645       C  0.67448485  0.61334040  0.98387505    -0.21300
C2646       C  0.67449757  0.61333875  0.51906593    -0.21300
C2647       C  0.66419676  0.98413855  0.89755756    -0.22400
C2648       C  0.66634269  0.52190978  0.89744787    -0.22400
C2649       C  0.66426945  0.98411460  0.60536250    -0.22400
C2650       C  0.66640478  0.52191566  0.60549242    -0.22400
C2651       C  0.64532318  0.93798419  0.94001484    -0.17700
C2652       C  0.64537154  0.93796638  0.56290106    -0.17700
C2653       C  0.65369343  0.57005174  0.56316217    -0.17700
C2654       C  0.65365666  0.57005379  0.93978080    -0.17700
H2655       H  0.66511107  0.86927419  0.96768437     0.15200
H2656       H  0.66513911  0.86926476  0.53519491     0.15200
H2657       H  0.68576396  0.63425746  0.96750980     0.15200
H2658       H  0.68578660  0.63425524  0.53542937     0.15200
H2659       H  0.67081156  0.96598779  0.87677328     0.13400
H2660       H  0.67484377  0.53913426  0.87652239     0.13400
H2661       H  0.67089733  0.96596106  0.62613959     0.13400
H2662       H  0.67491431  0.53914414  0.62641514     0.13400
H2663       H  0.63180807  0.97424318  0.50146686     0.26700
H2664       H  0.63472519  0.53679865  0.50147524     0.26700
N2665       N  0.50469634  0.65584901  0.55381033    -0.36100
N2666       N  0.95119043  0.65843751  0.50148874    -0.56600
N2667       N  0.50468471  0.65588323  0.94915984    -0.36100
N2668       N  0.55818275  0.66184029  0.50148099    -0.56600
C2669       C  0.97591187  0.66163037  0.57321830     0.27500
C2670       C  0.53308729  0.66392615  0.57320354     0.27500
C2671       C  0.97589485  0.66167609  0.92976012     0.27500
C2672       C  0.53307002  0.66396426  0.92976553     0.27500
C2673       C  0.92992818  0.65943068  0.52903665     0.36100
C2674       C  0.92992321  0.65944674  0.97394670     0.36100
C2675       C  0.57943309  0.66267151  0.52915419     0.36100
C2676       C  0.57942596  0.66268049  0.97380677     0.36100
C2677       C  0.98601721  0.67481325  0.60476392    -0.21300
C2678       C  0.52223915  0.67626469  0.60476012    -0.21300
C2679       C  0.98599080  0.67487323  0.89821933    -0.21300
C2680       C  0.52221330  0.67631997  0.89821729    -0.21300
C2681       C  0.89569063  0.66469022  0.51899494    -0.22400
C2682       C  0.89568732  0.66469988  0.98399284    -0.22400
C2683       C  0.61374604  0.66762404  0.51903341    -0.22400
C2684       C  0.61374118  0.66762987  0.98392607    -0.22400
C2685       C  0.94082428  0.65526120  0.56313695    -0.17700
C2686       C  0.56843757  0.65922474  0.56347561    -0.17700
C2687       C  0.56842143  0.65924606  0.93948502    -0.17700
C2688       C  0.94081196  0.65529440  0.93984343    -0.17700
H2689       H  0.96896897  0.68327145  0.62529931     0.15200
H2690       H  0.53875844  0.68587027  0.62538069     0.15200
H2691       H  0.96893650  0.68333931  0.87769000     0.15200
H2692       H  0.53872719  0.68592959  0.87759764     0.15200
H2693       H  0.87333732  0.66916728  0.53534950     0.13400
H2694       H  0.87333087  0.66918492  0.96764156     0.13400
H2695       H  0.63608423  0.67224174  0.53546397     0.13400
H2696       H  0.63607500  0.67225383  0.96749505     0.13400
H2697       H  0.50506288  0.64236018  0.53049514     0.26700
H2698       H  0.50505653  0.64238044  0.97246640     0.26700
C2699       C  0.86733596  0.63913589  0.63008014     0.87000
C2700       C  0.89113815  0.61451146  0.65207130    -0.53200
C2701       C  0.91320703  0.59323068  0.63312617     0.10000
C2702       C  0.90934721  0.59888243  0.59439760     0.20900
C2703       C  0.89254226  0.66177875  0.60735100    -0.53900
C2704       C  0.91488767  0.64061103  0.58863371     0.10100
C2705       C  0.84817532  0.61272298  0.60593860    -0.53500
C2706       C  0.87008870  0.59145154  0.58737733     0.10600
H2707       H  0.89041975  0.61373308  0.67971212     0.15100
H2708       H  0.92714207  0.58146065  0.57896539     0.00900
H2709       H  0.89239385  0.69159564  0.60584126     0.15500
H2710       H  0.81980366  0.61071125  0.60386974     0.15200
N2711       N  0.86120399  0.55357851  0.50152974    -0.36100
N2712       N  0.85358324  0.99744566  0.55324062    -0.56600
N2713       N  0.85359536  0.94122549  0.50153910    -0.36100
N2714       N  0.85360658  0.99746164  0.94983817    -0.56600
C2715       C  0.85271320  0.57388149  0.52895884     0.27500
C2716       C  0.85274013  0.57388752  0.97410016     0.27500
C2717       C  0.84864310  0.91981682  0.52923436     0.27500
C2718       C  0.84862936  0.91982579  0.97383751     0.27500
C2719       C  0.85107444  0.52724221  0.57342747     0.36100
C2720       C  0.84740951  0.96807940  0.57334912     0.36100
C2721       C  0.85112324  0.52724163  0.92963685     0.36100
C2722       C  0.84741150  0.96809704  0.92972992     0.36100
C2723       C  0.83741637  0.60644459  0.51902706    -0.21300
C2724       C  0.83743201  0.60644728  0.98402687    -0.21300
C2725       C  0.83939563  0.88469251  0.51911283    -0.21300
C2726       C  0.83938522  0.88469919  0.98395095    -0.21300
C2727       C  0.83998605  0.51717780  0.60552612    -0.22400
C2728       C  0.83779495  0.97937783  0.60553337    -0.22400
C2729       C  0.84003689  0.51717104  0.89753744    -0.22400
C2730       C  0.83780270  0.97939677  0.89754464    -0.22400
C2731       C  0.85772801  0.56337842  0.56273222    -0.17700
C2732       C  0.85776927  0.56338218  0.94032797    -0.17700
C2733       C  0.85172066  0.93131595  0.93971882    -0.17700
C2734       C  0.85174053  0.93130074  0.56335576    -0.17700
H2735       H  0.82636761  0.62734413  0.53534459     0.15200
H2736       H  0.82639168  0.62734748  0.96770597     0.15200
H2737       H  0.83211446  0.86194209  0.53545627     0.15200
H2738       H  0.83209631  0.86195264  0.96760251     0.15200
H2739       H  0.83295700  0.53532575  0.62618560     0.13400
H2740       H  0.82918043  0.96211086  0.62638490     0.13400
H2741       H  0.83301440  0.53531518  0.87687454     0.13400
H2742       H  0.82917363  0.96213193  0.87669403     0.13400
H2743       H  0.87572144  0.52944769  0.50153567     0.26700
H2744       H  0.86414262  0.96750867  0.50154101     0.26700
C2745       C  0.84490486  0.83688847  0.84594211    -0.12700
C2746       C  0.82786277  0.81835559  0.82648119    -0.14300
C2747       C  0.84216051  0.66128047  0.85372734    -0.12700
C2748       C  0.81982118  0.67871056  0.83939614    -0.14300
C2749       C  0.67962138  0.81800331  0.83996503    -0.12700
C2750       C  0.65988899  0.83733007  0.85548722    -0.14300
C2751       C  0.84498563  0.83685784  0.65711623    -0.12700
C2752       C  0.82793690  0.81833430  0.67657732    -0.14300
C2753       C  0.67454592  0.67722014  0.82051197    -0.12700
C2754       C  0.65827486  0.66103893  0.84247503    -0.14300
C2755       C  0.65998279  0.83731580  0.64742117    -0.12700
C2756       C  0.67970859  0.81798989  0.66295397    -0.14300
C2757       C  0.84225168  0.66129863  0.64932837    -0.12700
C2758       C  0.81991085  0.67872089  0.66366313    -0.14300
C2759       C  0.67460022  0.67720840  0.68243423    -0.12700
C2760       C  0.65832574  0.66103381  0.66046747    -0.14300
loop_ 
_geom_bond_atom_site_label_1 
_geom_bond_atom_site_label_2 
_geom_bond_distance 
_geom_bond_site_symmetry_2 
_ccdc_geom_bond_type 
O1            C9   1.269       .  A
O1          Co21   2.013       .  S
O2           C10   1.242       .  A
O2          Co22   1.962       .  S
O3           C11   1.257       .  A
O3          Co23   1.960       .  S
O4           C12   1.252       .  A
O4          Co24   2.000       .  S
O5           C11   1.269       .  A
O5          Co22   2.013       .  S
O6           C12   1.242       .  A
O6          Co21   1.962       .  S
O7           C10   1.252       .  A
O7          Co24   2.000       .  S
O8            C9   1.257       .  A
O8          Co23   1.960       .  S
C9          C341   1.423       .  S
C10         C331   1.433       .  S
C11         C334   1.423       .  S
C12         C337   1.433       .  S
O13          C26   1.272       .  A
O13         Co21   1.905       .  S
O14          C27   1.260       .  A
O14         Co22   1.986       .  S
O15          C28   1.265       .  A
O15         Co23   2.015       .  S
O16          C29   1.292       .  A
O16         Co24   2.054       .  S
O17          C29   1.272       .  A
O17         Co22   1.905       .  S
O18          C28   1.260       .  A
O18         Co21   1.986       .  S
O19          C26   1.292       .  A
O19         Co24   2.054       .  S
O20          C27   1.265       .  A
O20         Co23   2.015       .  S
Co21         O25   1.944       .  S
Co22         O25   1.944       .  S
Co23         O25   2.080       .  S
Co24         O25   2.252       .  S
C26         C343   1.433       .  S
C27         C338   1.443       .  S
C28         C344   1.443       .  S
C29         C333   1.433       .  S
C30          C31   1.536       .  S
C30          C36   1.540       .  S
C30          C34   1.544       .  S
C30         C330   1.466       .  S
C31          H38   1.086       .  S
C31          C32   1.360       .  D
C32          C33   1.547       .  S
C32          C98   1.491       .  S
C33          C37   1.542       .  S
C33          C35   1.544       .  S
C33          H39   1.112       .  S
C34          H40   1.086       .  S
C34          C35   1.366       .  D
C35         C159   1.495       .  S
C36          H41   1.086       .  S
C36          C37   1.364       .  D
C37         C318   1.487       .  S
C42          C43   1.531       .  S
C42          C48   1.544       .  S
C42          C46   1.544       .  S
C42         C332   1.465       .  S
C43          H50   1.087       .  S
C43          C44   1.356       .  D
C44          C45   1.544       .  S
C44         C317   1.481       .  S
C45          C49   1.541       .  S
C45          C47   1.547       .  S
C45          H51   1.112       .  S
C46          H52   1.086       .  S
C46          C47   1.367       .  D
C47         C273   1.502       .  S
C48          H53   1.086       .  S
C48          C49   1.368       .  D
C49         C101   1.490       .  S
C54          C55   1.531       .  S
C54          C60   1.545       .  S
C54          C58   1.535       .  S
C54         C335   1.457       .  S
C55          H62   1.087       .  S
C55          C56   1.358       .  D
C56          C57   1.544       .  S
C56         C236   1.482       .  S
C57          C61   1.542       .  S
C57          C59   1.545       .  S
C57          H63   1.112       .  S
C58          H64   1.086       .  S
C58          C59   1.360       .  D
C59         C156   1.489       .  S
C60          H65   1.086       .  S
C60          C61   1.368       .  D
C61          C99   1.491       .  S
C66          C67   1.532       .  S
C66          C72   1.542       .  S
C66          C70   1.553       .  S
C66         C339   1.478       .  S
C67          H74   1.087       .  S
C67          C68   1.358       .  D
C68          C69   1.546       .  S
C68         C100   1.488       .  S
C69          C73   1.545       .  S
C69          C71   1.544       .  S
C69          H75   1.111       .  S
C70          H76   1.086       .  S
C70          C71   1.373       .  D
C71         C272   1.507       .  S
C72          H77   1.086       .  S
C72          C73   1.366       .  D
C73         C239   1.492       .  S
N78          C83   1.350       .  A
N78        C1462   1.349   1_455  A
N78         H110   1.040       .  S
N79          C87   1.350   1_565  A
N79         C776   1.349       .  A
N80          C85   1.348       .  A
N80        C1464   1.350   1_455  A
N80         H111   1.036       .  S
N81          C89   1.349   1_565  A
N81         C778   1.349       .  A
C82        N1458   1.349       .  A
C82          C90   1.382       .  A
C82          C98   1.401       .  A
C83          C99   1.401       .  A
C83          C91   1.380       .  A
C84        N1460   1.350       .  A
C84          C92   1.380       .  A
C84         C101   1.403       .  A
C85         C100   1.404       .  A
C85          C93   1.381       .  A
C86         N769   1.349       .  A
C86          C98   1.406       .  A
C86          C94   1.378       .  A
C87         C101   1.408       .  A
C87          C95   1.378       .  A
C88         N771   1.349       .  A
C88          C96   1.377       .  A
C88          C99   1.404       .  A
C89          C97   1.379       .  A
C89         C100   1.408       .  A
C90        C1471   1.379       .  A
C90         H102   1.082       .  S
C91        C1470   1.379   1_455  A
C91         H103   1.082       .  S
C92        C1473   1.377       .  A
C92         H104   1.082       .  S
C93        C1472   1.377   1_455  A
C93         H105   1.081       .  S
C94         C785   1.377       .  A
C94         H106   1.081       .  S
C95         C784   1.377   1_545  A
C95         H107   1.081       .  S
C96         C787   1.376       .  A
C96         H108   1.081       .  S
C97         C786   1.376   1_545  A
C97         H109   1.080       .  S
C112        C113   1.540       .  S
C112        C118   1.536       .  S
C112        C116   1.544       .  S
C112        C336   1.466       .  S
C113        H120   1.086       .  S
C113        C114   1.364       .  D
C114        C115   1.542       .  S
C114        C319   1.487       .  S
C115        C119   1.547       .  S
C115        C117   1.544       .  S
C115        H121   1.112       .  S
C116        H122   1.086       .  S
C116        C117   1.366       .  D
C117        C158   1.495       .  S
C118        H123   1.086       .  S
C118        C119   1.360       .  D
C119        C202   1.491       .  S
C124        C125   1.545       .  S
C124        C130   1.531       .  S
C124        C128   1.535       .  S
C124        C340   1.457       .  S
C125        H132   1.086       .  S
C125        C126   1.368       .  D
C126        C127   1.542       .  S
C126        C203   1.491       .  S
C127        C131   1.544       .  S
C127        C129   1.545       .  S
C127        H133   1.112       .  S
C128        H134   1.086       .  S
C128        C129   1.360       .  D
C129        C157   1.489       .  S
C130        H135   1.087       .  S
C130        C131   1.358       .  D
C131        C237   1.482       .  S
N136        C141   1.348       .  A
N136        C485   1.348   1_554  A
N136        H168   1.040       .  S
N137        C144   1.351   1_655  A
N137       C1525   1.350       .  A
N138        C143   1.353       .  A
N138        C487   1.353   1_554  A
N138        H169   1.039       .  S
N139        C146   1.351   1_655  A
N139       C1527   1.350       .  A
C140        N481   1.348       .  A
C140        C148   1.382       .  A
C140        C156   1.401       .  A
C141        C157   1.401       .  A
C141        C149   1.382       .  A
C142        N483   1.353       .  A
C142        C150   1.382       .  A
C142        C159   1.411       .  A
C143        C158   1.411       .  A
C143        C151   1.382       .  A
C144        C156   1.405       .  A
C144        C152   1.377       .  A
C145       N1517   1.350       .  A
C145        C159   1.406       .  A
C145        C153   1.379       .  A
C146        C154   1.377       .  A
C146        C157   1.405       .  A
C147       N1519   1.350       .  A
C147        C155   1.379       .  A
C147        C158   1.406       .  A
C148        C494   1.377       .  A
C148        H160   1.082       .  S
C149        C493   1.377   1_554  A
C149        H161   1.082       .  S
C150        C496   1.383       .  A
C150        H162   1.082       .  S
C151        C495   1.383   1_554  A
C151        H163   1.082       .  S
C152       C1533   1.374   1_455  A
C152        H164   1.080       .  S
C153       C1532   1.374       .  A
C153        H165   1.080       .  S
C154       C1535   1.374   1_455  A
C154        H166   1.080       .  S
C155       C1534   1.374       .  A
C155        H167   1.080       .  S
C170        C171   1.542       .  S
C170        C176   1.532       .  S
C170        C174   1.552       .  S
C170        C345   1.478       .  S
C171        H178   1.086       .  S
C171        C172   1.366       .  D
C172        C173   1.545       .  S
C172        C238   1.492       .  S
C173        C177   1.546       .  S
C173        C175   1.544       .  S
C173        H179   1.111       .  S
C174        H180   1.086       .  S
C174        C175   1.373       .  D
C175        C271   1.506       .  S
C176        H181   1.087       .  S
C176        C177   1.358       .  D
C177        C204   1.488       .  S
N182        C187   1.350       .  A
N182       C1566   1.349   1_455  A
N182        H214   1.040       .  S
N183        C191   1.350   1_565  A
N183        C880   1.349       .  A
N184        C189   1.348       .  A
N184       C1568   1.350   1_455  A
N184        H215   1.036       .  S
N185        C193   1.349   1_565  A
N185        C882   1.349       .  A
C186       N1562   1.349       .  A
C186        C194   1.382       .  A
C186        C202   1.402       .  A
C187        C203   1.401       .  A
C187        C195   1.380       .  A
C188       N1564   1.350       .  A
C188        C196   1.380       .  A
C188        C205   1.403       .  A
C189        C204   1.404       .  A
C189        C197   1.381       .  A
C190        N873   1.349       .  A
C190        C202   1.406       .  A
C190        C198   1.378       .  A
C191        C205   1.408       .  A
C191        C199   1.378       .  A
C192        N875   1.349       .  A
C192        C200   1.377       .  A
C192        C203   1.404       .  A
C193        C201   1.379       .  A
C193        C204   1.407       .  A
C194       C1575   1.379       .  A
C194        H206   1.082       .  S
C195       C1574   1.379   1_455  A
C195        H207   1.082       .  S
C196       C1577   1.377       .  A
C196        H208   1.082       .  S
C197       C1576   1.377   1_455  A
C197        H209   1.081       .  S
C198        C889   1.377       .  A
C198        H210   1.081       .  S
C199        C888   1.377   1_545  A
C199        H211   1.081       .  S
C200        C891   1.376       .  A
C200        H212   1.081       .  S
C201        C890   1.376   1_545  A
C201        H213   1.080       .  S
C205        C286   1.490       .  S
N216        C221   1.347       .  A
N216        C565   1.347   1_554  A
N216        H248   1.038       .  S
N217        C225   1.348       .  A
N217        C914   1.348   1_545  A
N218        C223   1.350       .  A
N218        C567   1.350   1_554  A
N218        H249   1.039       .  S
N219        C227   1.348       .  A
N219        C916   1.348   1_545  A
C220        N561   1.347       .  A
C220        C228   1.380       .  A
C220        C236   1.398       .  A
C221        C237   1.398       .  A
C221        C229   1.380       .  A
C222        N563   1.350       .  A
C222        C230   1.381       .  A
C222        C239   1.405       .  A
C223        C238   1.405       .  A
C223        C231   1.381       .  A
C224        N907   1.348       .  A
C224        C236   1.404       .  A
C224        C232   1.378       .  A
C225        C239   1.403       .  A
C225        C233   1.378       .  A
C226        N909   1.348       .  A
C226        C234   1.378       .  A
C226        C237   1.404       .  A
C227        C235   1.378       .  A
C227        C238   1.403       .  A
C228        C574   1.373       .  A
C228        H240   1.081       .  S
C229        C573   1.373   1_554  A
C229        H241   1.081       .  S
C230        C576   1.381       .  A
C230        H242   1.082       .  S
C231        C575   1.381   1_554  A
C231        H243   1.082       .  S
C232        C923   1.375       .  A
C232        H244   1.080       .  S
C233        C922   1.375   1_545  A
C233        H245   1.081       .  S
C234        C925   1.375       .  A
C234        H246   1.080       .  S
C235        C924   1.375   1_545  A
C235        H247   1.081       .  S
N250        C255   1.354       .  A
N250       C1634   1.354   1_455  A
N250        H282   1.038       .  S
N251        C258   1.352       .  A
N251        C604   1.352   1_554  A
N252        C257   1.354       .  A
N252       C1636   1.354   1_455  A
N252        H283   1.038       .  S
N253        C260   1.355       .  A
N253        C606   1.355   1_554  A
C254       N1630   1.354       .  A
C254        C262   1.381       .  A
C254        C270   1.412       .  A
C255        C271   1.413       .  A
C255        C263   1.382       .  A
C256       N1632   1.354       .  A
C256        C264   1.381       .  A
C256        C273   1.412       .  A
C257        C272   1.413       .  A
C257        C265   1.382       .  A
C258        C270   1.410       .  A
C258        C266   1.378       .  A
C259        N596   1.352       .  A
C259        C273   1.410       .  A
C259        C267   1.378       .  A
C260        C268   1.378       .  A
C260        C271   1.416       .  A
C261        N598   1.355       .  A
C261        C269   1.378       .  A
C261        C272   1.416       .  A
C262       C1643   1.382       .  A
C262        H274   1.082       .  S
C263       C1642   1.382   1_455  A
C263        H275   1.082       .  S
C264       C1645   1.382       .  A
C264        H276   1.082       .  S
C265       C1644   1.382   1_455  A
C265        H277   1.082       .  S
C266        C612   1.374   1_554  A
C266        H278   1.080       .  S
C267        C611   1.374       .  A
C267        H279   1.080       .  S
C268        C614   1.378   1_554  A
C268        H280   1.080       .  S
C269        C613   1.378       .  A
C269        H281   1.080       .  S
C270        C289   1.502       .  S
C284        C285   1.544       .  S
C284        C290   1.531       .  S
C284        C288   1.544       .  S
C284        C342   1.465       .  S
C285        H292   1.086       .  S
C285        C286   1.368       .  D
C286        C287   1.541       .  S
C287        C291   1.544       .  S
C287        C289   1.547       .  S
C287        H293   1.112       .  S
C288        H294   1.086       .  S
C288        C289   1.367       .  D
C290        H295   1.087       .  S
C290        C291   1.356       .  D
C291        C316   1.481       .  S
N296        C300   1.346       .  A
N296        C646   1.346   1_554  A
N296        H328   1.041       .  S
N297        C305   1.347       .  A
N297        C994   1.346       .  A
N298        C302   1.350       .  A
N298        C648   1.350   1_554  A
N298        H329   1.034       .  S
N299        C307   1.347       .  A
N299        C996   1.346       .  A
C300        C308   1.380       .  A
C300        C316   1.393       .  A
C301        N641   1.346       .  A
C301        C317   1.393       .  A
C301        C309   1.380       .  A
C302        C310   1.381       .  A
C302        C319   1.408       .  A
C303        N643   1.350       .  A
C303        C318   1.408       .  A
C303        C311   1.381       .  A
C304        N987   1.346   1_545  A
C304        C316   1.401       .  A
C304        C312   1.378       .  A
C305        C319   1.405       .  A
C305        C313   1.379       .  A
C306        N989   1.346   1_545  A
C306        C314   1.378       .  A
C306        C317   1.401       .  A
C307        C315   1.379       .  A
C307        C318   1.405       .  A
C308        C654   1.374   1_554  A
C308        H320   1.082       .  S
C309        C653   1.374       .  A
C309        H321   1.082       .  S
C310        C656   1.380   1_554  A
C310        H322   1.081       .  S
C311        C655   1.380       .  A
C311        H323   1.081       .  S
C312       C1003   1.376   1_545  A
C312        H324   1.081       .  S
C313       C1002   1.376       .  A
C313        H325   1.081       .  S
C314       C1005   1.376   1_545  A
C314        H326   1.081       .  S
C315       C1004   1.376       .  A
C315        H327   1.081       .  S
C330        C331   1.205       .  T
C332        C333   1.205       .  T
C334        C335   1.200       .  T
C336        C337   1.205       .  T
C338        C339   1.212       .  T
C340        C341   1.200       .  T
C342        C343   1.205       .  T
C344        C345   1.212       .  T
O346        C354   1.269       .  A
O346       Co366   2.013       .  S
O347        C355   1.242       .  A
O347       Co367   1.962       .  S
O348        C356   1.257       .  A
O348       Co368   1.960       .  S
O349        C357   1.252       .  A
O349       Co369   2.000       .  S
O350        C356   1.269       .  A
O350       Co367   2.013       .  S
O351        C357   1.242       .  A
O351       Co366   1.962       .  S
O352        C355   1.252       .  A
O352       Co369   2.000       .  S
O353        C354   1.257       .  A
O353       Co368   1.960       .  S
C354        C686   1.423       .  S
C355        C676   1.433       .  S
C356        C679   1.423       .  S
C357        C682   1.433       .  S
O358        C371   1.272       .  A
O358       Co366   1.905       .  S
O359        C372   1.260       .  A
O359       Co367   1.986       .  S
O360        C373   1.265       .  A
O360       Co368   2.015       .  S
O361        C374   1.292       .  A
O361       Co369   2.054       .  S
O362        C374   1.272       .  A
O362       Co367   1.905       .  S
O363        C373   1.260       .  A
O363       Co366   1.986       .  S
O364        C371   1.292       .  A
O364       Co369   2.054       .  S
O365        C372   1.265       .  A
O365       Co368   2.015       .  S
Co366       O370   1.945       .  S
Co367       O370   1.945       .  S
Co368       O370   2.080       .  S
Co369       O370   2.252       .  S
C371        C688   1.433       .  S
C372        C683   1.443       .  S
C373        C689   1.443       .  S
C374        C678   1.433       .  S
C375        C376   1.536       .  S
C375        C381   1.540       .  S
C375        C379   1.544       .  S
C375        C675   1.466       .  S
C376        H383   1.086       .  S
C376        C377   1.360       .  D
C377        C378   1.547       .  S
C377        C443   1.491       .  S
C378        C382   1.542       .  S
C378        C380   1.544       .  S
C378        H384   1.112       .  S
C379        H385   1.086       .  S
C379        C380   1.366       .  D
C380        C504   1.495       .  S
C381        H386   1.086       .  S
C381        C382   1.364       .  D
C382        C663   1.487       .  S
C387        C388   1.531       .  S
C387        C393   1.544       .  S
C387        C391   1.544       .  S
C387        C677   1.465       .  S
C388        H395   1.087       .  S
C388        C389   1.356       .  D
C389        C390   1.544       .  S
C389        C662   1.481       .  S
C390        C394   1.541       .  S
C390        C392   1.547       .  S
C390        H396   1.112       .  S
C391        H397   1.086       .  S
C391        C392   1.367       .  D
C392        C618   1.502       .  S
C393        H398   1.086       .  S
C393        C394   1.368       .  D
C394        C446   1.490       .  S
C399        C400   1.531       .  S
C399        C405   1.545       .  S
C399        C403   1.535       .  S
C399        C680   1.457       .  S
C400        H407   1.087       .  S
C400        C401   1.358       .  D
C401        C402   1.544       .  S
C401        C581   1.482       .  S
C402        C406   1.542       .  S
C402        C404   1.545       .  S
C402        H408   1.112       .  S
C403        H409   1.086       .  S
C403        C404   1.360       .  D
C404        C501   1.489       .  S
C405        H410   1.086       .  S
C405        C406   1.368       .  D
C406        C444   1.491       .  S
C411        C412   1.532       .  S
C411        C417   1.542       .  S
C411        C415   1.552       .  S
C411        C684   1.478       .  S
C412        H419   1.087       .  S
C412        C413   1.358       .  D
C413        C414   1.546       .  S
C413        C445   1.488       .  S
C414        C418   1.545       .  S
C414        C416   1.544       .  S
C414        H420   1.111       .  S
C415        H421   1.086       .  S
C415        C416   1.373       .  D
C416        C617   1.507       .  S
C417        H422   1.086       .  S
C417        C418   1.366       .  D
C418        C584   1.492       .  S
N423        C428   1.350       .  A
N423       C1807   1.349   1_455  A
N423        H455   1.040       .  S
N424       C1121   1.349       .  A
N424        C432   1.350   1_565  A
N425        C430   1.348       .  A
N425       C1809   1.350   1_455  A
N425        H456   1.036       .  S
N426       C1123   1.349       .  A
N426        C434   1.349   1_565  A
C427       N1803   1.349       .  A
C427        C435   1.382       .  A
C427        C443   1.401       .  A
C428        C444   1.401       .  A
C428        C436   1.380       .  A
C429       N1805   1.350       .  A
C429        C437   1.380       .  A
C429        C446   1.403       .  A
C430        C445   1.404       .  A
C430        C438   1.381       .  A
C431       N1114   1.349       .  A
C431        C443   1.406       .  A
C431        C439   1.378       .  A
C432        C446   1.408       .  A
C432        C440   1.378       .  A
C433       N1116   1.349       .  A
C433        C441   1.377       .  A
C433        C444   1.404       .  A
C434        C442   1.379       .  A
C434        C445   1.408       .  A
C435       C1816   1.379       .  A
C435        H447   1.082       .  S
C436       C1815   1.379   1_455  A
C436        H448   1.082       .  S
C437       C1818   1.377       .  A
C437        H449   1.082       .  S
C438       C1817   1.377   1_455  A
C438        H450   1.081       .  S
C439       C1130   1.377       .  A
C439        H451   1.081       .  S
C440       C1129   1.377   1_545  A
C440        H452   1.081       .  S
C441       C1132   1.376       .  A
C441        H453   1.081       .  S
C442       C1131   1.376   1_545  A
C442        H454   1.080       .  S
C457        C458   1.540       .  S
C457        C463   1.536       .  S
C457        C461   1.544       .  S
C457        C681   1.466       .  S
C458        H465   1.086       .  S
C458        C459   1.364       .  D
C459        C460   1.542       .  S
C459        C664   1.487       .  S
C460        C464   1.547       .  S
C460        C462   1.544       .  S
C460        H466   1.112       .  S
C461        H467   1.086       .  S
C461        C462   1.366       .  D
C462        C503   1.495       .  S
C463        H468   1.086       .  S
C463        C464   1.360       .  D
C464        C547   1.491       .  S
C469        C470   1.545       .  S
C469        C475   1.531       .  S
C469        C473   1.535       .  S
C469        C685   1.457       .  S
C470        H477   1.086       .  S
C470        C471   1.368       .  D
C471        C472   1.542       .  S
C471        C548   1.491       .  S
C472        C476   1.544       .  S
C472        C474   1.545       .  S
C472        H478   1.112       .  S
C473        H479   1.086       .  S
C473        C474   1.360       .  D
C474        C502   1.489       .  S
C475        H480   1.087       .  S
C475        C476   1.358       .  D
C476        C582   1.482       .  S
N481        C486   1.348       .  A
N481        H513   1.040       .  S
N482        C489   1.351   1_655  A
N482       C1870   1.350       .  A
N483        C488   1.353       .  A
N483        H514   1.039       .  S
N484        C491   1.351   1_655  A
N484       C1872   1.350       .  A
C485        C493   1.382       .  A
C485        C501   1.401       .  A
C486        C502   1.401       .  A
C486        C494   1.382       .  A
C487        C495   1.382       .  A
C487        C504   1.411       .  A
C488        C503   1.411       .  A
C488        C496   1.382       .  A
C489        C501   1.405       .  A
C489        C497   1.377       .  A
C490       N1862   1.350       .  A
C490        C504   1.406       .  A
C490        C498   1.379       .  A
C491        C499   1.377       .  A
C491        C502   1.405       .  A
C492       N1864   1.350       .  A
C492        C500   1.379       .  A
C492        C503   1.406       .  A
C493        H505   1.082       .  S
C494        H506   1.082       .  S
C495        H507   1.082       .  S
C496        H508   1.082       .  S
C497       C1878   1.374   1_455  A
C497        H509   1.080       .  S
C498       C1877   1.374       .  A
C498        H510   1.080       .  S
C499       C1880   1.374   1_455  A
C499        H511   1.080       .  S
C500       C1879   1.374       .  A
C500        H512   1.080       .  S
C515        C516   1.542       .  S
C515        C521   1.532       .  S
C515        C519   1.552       .  S
C515        C690   1.478       .  S
C516        H523   1.086       .  S
C516        C517   1.366       .  D
C517        C518   1.545       .  S
C517        C583   1.492       .  S
C518        C522   1.546       .  S
C518        C520   1.544       .  S
C518        H524   1.111       .  S
C519        H525   1.086       .  S
C519        C520   1.373       .  D
C520        C616   1.506       .  S
C521        H526   1.087       .  S
C521        C522   1.358       .  D
C522        C549   1.488       .  S
N527        C532   1.350       .  A
N527       C1911   1.349   1_455  A
N527        H559   1.040       .  S
N528       C1225   1.349       .  A
N528        C536   1.350   1_565  A
N529        C534   1.348       .  A
N529       C1913   1.350   1_455  A
N529        H560   1.036       .  S
N530       C1227   1.349       .  A
N530        C538   1.349   1_565  A
C531       N1907   1.349       .  A
C531        C539   1.382       .  A
C531        C547   1.402       .  A
C532        C548   1.401       .  A
C532        C540   1.380       .  A
C533       N1909   1.350       .  A
C533        C541   1.380       .  A
C533        C550   1.403       .  A
C534        C549   1.404       .  A
C534        C542   1.381       .  A
C535       N1218   1.349       .  A
C535        C547   1.406       .  A
C535        C543   1.378       .  A
C536        C550   1.408       .  A
C536        C544   1.378       .  A
C537       N1220   1.349       .  A
C537        C545   1.377       .  A
C537        C548   1.404       .  A
C538        C546   1.379       .  A
C538        C549   1.407       .  A
C539       C1920   1.379       .  A
C539        H551   1.082       .  S
C540       C1919   1.379   1_455  A
C540        H552   1.082       .  S
C541       C1922   1.377       .  A
C541        H553   1.082       .  S
C542       C1921   1.377   1_455  A
C542        H554   1.081       .  S
C543       C1234   1.377       .  A
C543        H555   1.081       .  S
C544       C1233   1.377   1_545  A
C544        H556   1.081       .  S
C545       C1236   1.376       .  A
C545        H557   1.081       .  S
C546       C1235   1.376   1_545  A
C546        H558   1.080       .  S
C550        C631   1.490       .  S
N561        C566   1.347       .  A
N561        H593   1.038       .  S
N562       C1259   1.348   1_545  A
N562        C570   1.348       .  A
N563        C568   1.350       .  A
N563        H594   1.039       .  S
N564       C1261   1.348   1_545  A
N564        C572   1.348       .  A
C565        C573   1.380       .  A
C565        C581   1.398       .  A
C566        C582   1.398       .  A
C566        C574   1.380       .  A
C567        C575   1.381       .  A
C567        C584   1.405       .  A
C568        C583   1.405       .  A
C568        C576   1.381       .  A
C569       N1252   1.348       .  A
C569        C581   1.404       .  A
C569        C577   1.378       .  A
C570        C584   1.403       .  A
C570        C578   1.378       .  A
C571       N1254   1.348       .  A
C571        C579   1.378       .  A
C571        C582   1.404       .  A
C572        C580   1.378       .  A
C572        C583   1.403       .  A
C573        H585   1.081       .  S
C574        H586   1.081       .  S
C575        H587   1.082       .  S
C576        H588   1.082       .  S
C577       C1268   1.375       .  A
C577        H589   1.080       .  S
C578       C1267   1.375   1_545  A
C578        H590   1.081       .  S
C579       C1270   1.375       .  A
C579        H591   1.080       .  S
C580       C1269   1.375   1_545  A
C580        H592   1.081       .  S
N595        C600   1.354       .  A
N595       C1979   1.354   1_455  A
N595        H627   1.038       .  S
N596        C603   1.352       .  A
N597        C602   1.354       .  A
N597       C1981   1.354   1_455  A
N597        H628   1.038       .  S
N598        C605   1.355       .  A
C599       N1975   1.354       .  A
C599        C607   1.381       .  A
C599        C615   1.412       .  A
C600        C616   1.413       .  A
C600        C608   1.382       .  A
C601       N1977   1.354       .  A
C601        C609   1.381       .  A
C601        C618   1.412       .  A
C602        C617   1.413       .  A
C602        C610   1.382       .  A
C603        C615   1.410       .  A
C603        C611   1.378       .  A
C604        C618   1.410       .  A
C604        C612   1.378       .  A
C605        C613   1.378       .  A
C605        C616   1.416       .  A
C606        C614   1.378       .  A
C606        C617   1.416       .  A
C607       C1988   1.382       .  A
C607        H619   1.082       .  S
C608       C1987   1.382   1_455  A
C608        H620   1.082       .  S
C609       C1990   1.382       .  A
C609        H621   1.082       .  S
C610       C1989   1.382   1_455  A
C610        H622   1.082       .  S
C611        H623   1.080       .  S
C612        H624   1.080       .  S
C613        H625   1.080       .  S
C614        H626   1.080       .  S
C615        C634   1.502       .  S
C629        C630   1.544       .  S
C629        C635   1.531       .  S
C629        C633   1.544       .  S
C629        C687   1.465       .  S
C630        H637   1.086       .  S
C630        C631   1.368       .  D
C631        C632   1.541       .  S
C632        C636   1.544       .  S
C632        C634   1.547       .  S
C632        H638   1.112       .  S
C633        H639   1.086       .  S
C633        C634   1.367       .  D
C635        H640   1.087       .  S
C635        C636   1.356       .  D
C636        C661   1.481       .  S
N641        C645   1.346       .  A
N641        H673   1.041       .  S
N642       C1339   1.346       .  A
N642        C650   1.347       .  A
N643        C647   1.350       .  A
N643        H674   1.034       .  S
N644       C1341   1.346       .  A
N644        C652   1.347       .  A
C645        C653   1.380       .  A
C645        C661   1.393       .  A
C646        C662   1.393       .  A
C646        C654   1.380       .  A
C647        C655   1.381       .  A
C647        C664   1.408       .  A
C648        C663   1.408       .  A
C648        C656   1.381       .  A
C649       N1332   1.346   1_545  A
C649        C661   1.401       .  A
C649        C657   1.378       .  A
C650        C664   1.405       .  A
C650        C658   1.379       .  A
C651       N1334   1.346   1_545  A
C651        C659   1.378       .  A
C651        C662   1.401       .  A
C652        C660   1.379       .  A
C652        C663   1.405       .  A
C653        H665   1.082       .  S
C654        H666   1.082       .  S
C655        H667   1.081       .  S
C656        H668   1.081       .  S
C657       C1348   1.376   1_545  A
C657        H669   1.081       .  S
C658       C1347   1.376       .  A
C658        H670   1.081       .  S
C659       C1350   1.376   1_545  A
C659        H671   1.081       .  S
C660       C1349   1.376       .  A
C660        H672   1.081       .  S
C675        C676   1.205       .  T
C677        C678   1.205       .  T
C679        C680   1.200       .  T
C681        C682   1.205       .  T
C683        C684   1.212       .  T
C685        C686   1.200       .  T
C687        C688   1.205       .  T
C689        C690   1.212       .  T
O691        C699   1.269       .  A
O691       Co711   2.013       .  S
O692        C700   1.242       .  A
O692       Co712   1.962       .  S
O693        C701   1.257       .  A
O693       Co713   1.960       .  S
O694        C702   1.252       .  A
O694       Co714   2.000       .  S
O695        C701   1.269       .  A
O695       Co712   2.013       .  S
O696        C702   1.242       .  A
O696       Co711   1.962       .  S
O697        C700   1.252       .  A
O697       Co714   2.000       .  S
O698        C699   1.257       .  A
O698       Co713   1.960       .  S
C699       C1031   1.423       .  S
C700       C1021   1.433       .  S
C701       C1024   1.423       .  S
C702       C1027   1.433       .  S
O703        C716   1.272       .  A
O703       Co711   1.905       .  S
O704        C717   1.260       .  A
O704       Co712   1.986       .  S
O705        C718   1.265       .  A
O705       Co713   2.015       .  S
O706        C719   1.292       .  A
O706       Co714   2.054       .  S
O707        C719   1.272       .  A
O707       Co712   1.905       .  S
O708        C718   1.260       .  A
O708       Co711   1.986       .  S
O709        C716   1.292       .  A
O709       Co714   2.054       .  S
O710        C717   1.265       .  A
O710       Co713   2.015       .  S
Co711       O715   1.944       .  S
Co712       O715   1.944       .  S
Co713       O715   2.080       .  S
Co714       O715   2.252       .  S
C716       C1033   1.433       .  S
C717       C1028   1.443       .  S
C718       C1034   1.443       .  S
C719       C1023   1.433       .  S
C720        C721   1.536       .  S
C720        C726   1.540       .  S
C720        C724   1.544       .  S
C720       C1020   1.466       .  S
C721        H728   1.086       .  S
C721        C722   1.360       .  D
C722        C723   1.548       .  S
C722        C788   1.491       .  S
C723        C727   1.542       .  S
C723        C725   1.544       .  S
C723        H729   1.112       .  S
C724        H730   1.086       .  S
C724        C725   1.366       .  D
C725        C849   1.495       .  S
C726        H731   1.086       .  S
C726        C727   1.364       .  D
C727       C1008   1.487       .  S
C732        C733   1.531       .  S
C732        C738   1.544       .  S
C732        C736   1.544       .  S
C732       C1022   1.465       .  S
C733        H740   1.087       .  S
C733        C734   1.356       .  D
C734        C735   1.544       .  S
C734       C1007   1.481       .  S
C735        C739   1.541       .  S
C735        C737   1.547       .  S
C735        H741   1.112       .  S
C736        H742   1.086       .  S
C736        C737   1.367       .  D
C737        C963   1.502       .  S
C738        H743   1.086       .  S
C738        C739   1.368       .  D
C739        C791   1.490       .  S
C744        C745   1.531       .  S
C744        C750   1.545       .  S
C744        C748   1.535       .  S
C744       C1025   1.457       .  S
C745        H752   1.087       .  S
C745        C746   1.358       .  D
C746        C747   1.544       .  S
C746        C926   1.482       .  S
C747        C751   1.542       .  S
C747        C749   1.545       .  S
C747        H753   1.112       .  S
C748        H754   1.086       .  S
C748        C749   1.360       .  D
C749        C846   1.489       .  S
C750        H755   1.086       .  S
C750        C751   1.368       .  D
C751        C789   1.491       .  S
C756        C757   1.532       .  S
C756        C762   1.542       .  S
C756        C760   1.552       .  S
C756       C1029   1.478       .  S
C757        H764   1.087       .  S
C757        C758   1.358       .  D
C758        C759   1.546       .  S
C758        C790   1.488       .  S
C759        C763   1.545       .  S
C759        C761   1.544       .  S
C759        H765   1.111       .  S
C760        H766   1.086       .  S
C760        C761   1.373       .  D
C761        C962   1.507       .  S
C762        H767   1.086       .  S
C762        C763   1.366       .  D
C763        C929   1.492       .  S
N768        C773   1.350       .  A
N768       C2152   1.349   1_455  A
N768        H800   1.040       .  S
N769        C777   1.350       .  A
N770        C775   1.348       .  A
N770       C2154   1.350   1_455  A
N770        H801   1.036       .  S
N771        C779   1.349       .  A
C772       N2148   1.349       .  A
C772        C780   1.382       .  A
C772        C788   1.401       .  A
C773        C789   1.401       .  A
C773        C781   1.380       .  A
C774       N2150   1.350       .  A
C774        C782   1.380       .  A
C774        C791   1.403       .  A
C775        C790   1.404       .  A
C775        C783   1.381       .  A
C776        C788   1.406       .  A
C776        C784   1.378       .  A
C777        C791   1.408       .  A
C777        C785   1.378       .  A
C778        C786   1.377       .  A
C778        C789   1.404       .  A
C779        C787   1.379       .  A
C779        C790   1.408       .  A
C780       C2161   1.379       .  A
C780        H792   1.082       .  S
C781       C2160   1.379   1_455  A
C781        H793   1.082       .  S
C782       C2163   1.377       .  A
C782        H794   1.082       .  S
C783       C2162   1.377   1_455  A
C783        H795   1.081       .  S
C784        H796   1.081       .  S
C785        H797   1.081       .  S
C786        H798   1.081       .  S
C787        H799   1.080       .  S
C802        C803   1.540       .  S
C802        C808   1.536       .  S
C802        C806   1.544       .  S
C802       C1026   1.466       .  S
C803        H810   1.086       .  S
C803        C804   1.364       .  D
C804        C805   1.542       .  S
C804       C1009   1.487       .  S
C805        C809   1.547       .  S
C805        C807   1.544       .  S
C805        H811   1.112       .  S
C806        H812   1.086       .  S
C806        C807   1.366       .  D
C807        C848   1.495       .  S
C808        H813   1.086       .  S
C808        C809   1.360       .  D
C809        C892   1.491       .  S
C814        C815   1.545       .  S
C814        C820   1.531       .  S
C814        C818   1.535       .  S
C814       C1030   1.457       .  S
C815        H822   1.086       .  S
C815        C816   1.368       .  D
C816        C817   1.542       .  S
C816        C893   1.491       .  S
C817        C821   1.544       .  S
C817        C819   1.545       .  S
C817        H823   1.112       .  S
C818        H824   1.086       .  S
C818        C819   1.360       .  D
C819        C847   1.489       .  S
C820        H825   1.087       .  S
C820        C821   1.358       .  D
C821        C927   1.482       .  S
N826        C831   1.348       .  A
N826       C1175   1.348   1_554  A
N826        H858   1.040       .  S
N827        C834   1.351   1_655  A
N827       C2215   1.350       .  A
N828        C833   1.353       .  A
N828       C1177   1.353   1_554  A
N828        H859   1.039       .  S
N829        C836   1.351   1_655  A
N829       C2217   1.350       .  A
C830       N1171   1.348       .  A
C830        C838   1.382       .  A
C830        C846   1.401       .  A
C831        C847   1.401       .  A
C831        C839   1.382       .  A
C832       N1173   1.353       .  A
C832        C840   1.382       .  A
C832        C849   1.411       .  A
C833        C848   1.411       .  A
C833        C841   1.382       .  A
C834        C846   1.405       .  A
C834        C842   1.377       .  A
C835       N2207   1.350       .  A
C835        C849   1.406       .  A
C835        C843   1.379       .  A
C836        C844   1.377       .  A
C836        C847   1.405       .  A
C837       N2209   1.350       .  A
C837        C845   1.379       .  A
C837        C848   1.406       .  A
C838       C1184   1.377       .  A
C838        H850   1.082       .  S
C839       C1183   1.377   1_554  A
C839        H851   1.082       .  S
C840       C1186   1.383       .  A
C840        H852   1.082       .  S
C841       C1185   1.383   1_554  A
C841        H853   1.082       .  S
C842       C2223   1.374   1_455  A
C842        H854   1.080       .  S
C843       C2222   1.374       .  A
C843        H855   1.080       .  S
C844       C2225   1.374   1_455  A
C844        H856   1.080       .  S
C845       C2224   1.374       .  A
C845        H857   1.080       .  S
C860        C861   1.542       .  S
C860        C866   1.532       .  S
C860        C864   1.552       .  S
C860       C1035   1.478       .  S
C861        H868   1.086       .  S
C861        C862   1.366       .  D
C862        C863   1.545       .  S
C862        C928   1.492       .  S
C863        C867   1.546       .  S
C863        C865   1.544       .  S
C863        H869   1.111       .  S
C864        H870   1.086       .  S
C864        C865   1.373       .  D
C865        C961   1.507       .  S
C866        H871   1.087       .  S
C866        C867   1.358       .  D
C867        C894   1.488       .  S
N872        C877   1.350       .  A
N872       C2256   1.349   1_455  A
N872        H904   1.040       .  S
N873        C881   1.350       .  A
N874        C879   1.348       .  A
N874       C2258   1.350   1_455  A
N874        H905   1.036       .  S
N875        C883   1.349       .  A
C876       N2252   1.349       .  A
C876        C884   1.382       .  A
C876        C892   1.401       .  A
C877        C893   1.401       .  A
C877        C885   1.380       .  A
C878       N2254   1.350       .  A
C878        C886   1.380       .  A
C878        C895   1.403       .  A
C879        C894   1.404       .  A
C879        C887   1.381       .  A
C880        C892   1.406       .  A
C880        C888   1.378       .  A
C881        C895   1.408       .  A
C881        C889   1.378       .  A
C882        C890   1.377       .  A
C882        C893   1.404       .  A
C883        C891   1.379       .  A
C883        C894   1.407       .  A
C884       C2265   1.379       .  A
C884        H896   1.082       .  S
C885       C2264   1.379   1_455  A
C885        H897   1.082       .  S
C886       C2267   1.377       .  A
C886        H898   1.082       .  S
C887       C2266   1.377   1_455  A
C887        H899   1.081       .  S
C888        H900   1.081       .  S
C889        H901   1.081       .  S
C890        H902   1.081       .  S
C891        H903   1.080       .  S
C895        C976   1.490       .  S
N906        C911   1.347       .  A
N906       C1255   1.347   1_554  A
N906        H938   1.038       .  S
N907        C915   1.348       .  A
N908        C913   1.350       .  A
N908       C1257   1.350   1_554  A
N908        H939   1.039       .  S
N909        C917   1.348       .  A
C910       N1251   1.347       .  A
C910        C918   1.380       .  A
C910        C926   1.398       .  A
C911        C927   1.398       .  A
C911        C919   1.380       .  A
C912       N1253   1.350       .  A
C912        C920   1.381       .  A
C912        C929   1.405       .  A
C913        C928   1.405       .  A
C913        C921   1.381       .  A
C914        C926   1.404       .  A
C914        C922   1.378       .  A
C915        C929   1.403       .  A
C915        C923   1.378       .  A
C916        C924   1.378       .  A
C916        C927   1.404       .  A
C917        C925   1.378       .  A
C917        C928   1.403       .  A
C918       C1264   1.373       .  A
C918        H930   1.081       .  S
C919       C1263   1.373   1_554  A
C919        H931   1.081       .  S
C920       C1266   1.381       .  A
C920        H932   1.082       .  S
C921       C1265   1.381   1_554  A
C921        H933   1.082       .  S
C922        H934   1.080       .  S
C923        H935   1.081       .  S
C924        H936   1.080       .  S
C925        H937   1.081       .  S
N940        C945   1.354       .  A
N940       C2324   1.354   1_455  A
N940        H972   1.038       .  S
N941        C948   1.352       .  A
N941       C1294   1.352   1_554  A
N942        C947   1.354       .  A
N942       C2326   1.354   1_455  A
N942        H973   1.038       .  S
N943        C950   1.355       .  A
N943       C1296   1.355   1_554  A
C944       N2320   1.354       .  A
C944        C952   1.381       .  A
C944        C960   1.412       .  A
C945        C961   1.413       .  A
C945        C953   1.382       .  A
C946       N2322   1.354       .  A
C946        C954   1.381       .  A
C946        C963   1.412       .  A
C947        C962   1.413       .  A
C947        C955   1.382       .  A
C948        C960   1.410       .  A
C948        C956   1.378       .  A
C949       N1286   1.352       .  A
C949        C963   1.410       .  A
C949        C957   1.378       .  A
C950        C958   1.378       .  A
C950        C961   1.416       .  A
C951       N1288   1.355       .  A
C951        C959   1.378       .  A
C951        C962   1.416       .  A
C952       C2333   1.382       .  A
C952        H964   1.082       .  S
C953       C2332   1.382   1_455  A
C953        H965   1.082       .  S
C954       C2335   1.382       .  A
C954        H966   1.082       .  S
C955       C2334   1.382   1_455  A
C955        H967   1.082       .  S
C956       C1302   1.374   1_554  A
C956        H968   1.080       .  S
C957       C1301   1.374       .  A
C957        H969   1.080       .  S
C958       C1304   1.378   1_554  A
C958        H970   1.080       .  S
C959       C1303   1.378       .  A
C959        H971   1.080       .  S
C960        C979   1.502       .  S
C974        C975   1.544       .  S
C974        C980   1.531       .  S
C974        C978   1.544       .  S
C974       C1032   1.465       .  S
C975        H982   1.086       .  S
C975        C976   1.368       .  D
C976        C977   1.541       .  S
C977        C981   1.544       .  S
C977        C979   1.547       .  S
C977        H983   1.112       .  S
C978        H984   1.086       .  S
C978        C979   1.367       .  D
C980        H985   1.087       .  S
C980        C981   1.356       .  D
C981       C1006   1.481       .  S
N986       C1336   1.346   1_554  A
N986        C990   1.346       .  A
N986       H1018   1.041       .  S
N987        C995   1.347       .  A
N988       C1338   1.350   1_554  A
N988        C992   1.350       .  A
N988       H1019   1.034       .  S
N989        C997   1.347       .  A
C990        C998   1.380       .  A
C990       C1006   1.393       .  A
C991       N1331   1.346       .  A
C991       C1007   1.393       .  A
C991        C999   1.380       .  A
C992       C1000   1.381       .  A
C992       C1009   1.408       .  A
C993       N1333   1.350       .  A
C993       C1008   1.408       .  A
C993       C1001   1.381       .  A
C994       C1006   1.401       .  A
C994       C1002   1.378       .  A
C995       C1009   1.405       .  A
C995       C1003   1.379       .  A
C996       C1004   1.378       .  A
C996       C1007   1.401       .  A
C997       C1005   1.379       .  A
C997       C1008   1.405       .  A
C998       C1344   1.374   1_554  A
C998       H1010   1.082       .  S
C999       C1343   1.374       .  A
C999       H1011   1.082       .  S
C1000      C1346   1.380   1_554  A
C1000      H1012   1.081       .  S
C1001      C1345   1.380       .  A
C1001      H1013   1.081       .  S
C1002      H1014   1.081       .  S
C1003      H1015   1.081       .  S
C1004      H1016   1.081       .  S
C1005      H1017   1.081       .  S
C1020      C1021   1.205       .  T
C1022      C1023   1.205       .  T
C1024      C1025   1.200       .  T
C1026      C1027   1.205       .  T
C1028      C1029   1.212       .  T
C1030      C1031   1.200       .  T
C1032      C1033   1.205       .  T
C1034      C1035   1.212       .  T
O1036      C1044   1.269       .  A
O1036     Co1056   2.013       .  S
O1037      C1045   1.242       .  A
O1037     Co1057   1.962       .  S
O1038      C1046   1.257       .  A
O1038     Co1058   1.960       .  S
O1039      C1047   1.252       .  A
O1039     Co1059   2.000       .  S
O1040      C1046   1.269       .  A
O1040     Co1057   2.013       .  S
O1041      C1047   1.242       .  A
O1041     Co1056   1.962       .  S
O1042      C1045   1.252       .  A
O1042     Co1059   2.000       .  S
O1043      C1044   1.257       .  A
O1043     Co1058   1.960       .  S
C1044      C1376   1.423       .  S
C1045      C1366   1.433       .  S
C1046      C1369   1.423       .  S
C1047      C1372   1.433       .  S
O1048      C1061   1.272       .  A
O1048     Co1056   1.905       .  S
O1049      C1062   1.260       .  A
O1049     Co1057   1.986       .  S
O1050      C1063   1.265       .  A
O1050     Co1058   2.015       .  S
O1051      C1064   1.292       .  A
O1051     Co1059   2.054       .  S
O1052      C1064   1.272       .  A
O1052     Co1057   1.905       .  S
O1053      C1063   1.260       .  A
O1053     Co1056   1.986       .  S
O1054      C1061   1.292       .  A
O1054     Co1059   2.054       .  S
O1055      C1062   1.265       .  A
O1055     Co1058   2.015       .  S
Co1056     O1060   1.944       .  S
Co1057     O1060   1.944       .  S
Co1058     O1060   2.080       .  S
Co1059     O1060   2.252       .  S
C1061      C1378   1.433       .  S
C1062      C1373   1.443       .  S
C1063      C1379   1.443       .  S
C1064      C1368   1.433       .  S
C1065      C1066   1.536       .  S
C1065      C1071   1.540       .  S
C1065      C1069   1.544       .  S
C1065      C1365   1.466       .  S
C1066      H1073   1.086       .  S
C1066      C1067   1.360       .  D
C1067      C1068   1.548       .  S
C1067      C1133   1.491       .  S
C1068      C1072   1.542       .  S
C1068      C1070   1.544       .  S
C1068      H1074   1.112       .  S
C1069      H1075   1.086       .  S
C1069      C1070   1.366       .  D
C1070      C1194   1.495       .  S
C1071      H1076   1.086       .  S
C1071      C1072   1.364       .  D
C1072      C1353   1.487       .  S
C1077      C1078   1.531       .  S
C1077      C1083   1.544       .  S
C1077      C1081   1.544       .  S
C1077      C1367   1.465       .  S
C1078      H1085   1.087       .  S
C1078      C1079   1.356       .  D
C1079      C1080   1.544       .  S
C1079      C1352   1.481       .  S
C1080      C1084   1.541       .  S
C1080      C1082   1.547       .  S
C1080      H1086   1.112       .  S
C1081      H1087   1.086       .  S
C1081      C1082   1.367       .  D
C1082      C1308   1.502       .  S
C1083      H1088   1.086       .  S
C1083      C1084   1.368       .  D
C1084      C1136   1.490       .  S
C1089      C1090   1.531       .  S
C1089      C1095   1.545       .  S
C1089      C1093   1.535       .  S
C1089      C1370   1.457       .  S
C1090      H1097   1.087       .  S
C1090      C1091   1.358       .  D
C1091      C1092   1.544       .  S
C1091      C1271   1.482       .  S
C1092      C1096   1.542       .  S
C1092      C1094   1.545       .  S
C1092      H1098   1.112       .  S
C1093      H1099   1.086       .  S
C1093      C1094   1.360       .  D
C1094      C1191   1.489       .  S
C1095      H1100   1.086       .  S
C1095      C1096   1.368       .  D
C1096      C1134   1.491       .  S
C1101      C1102   1.532       .  S
C1101      C1107   1.542       .  S
C1101      C1105   1.552       .  S
C1101      C1374   1.478       .  S
C1102      H1109   1.087       .  S
C1102      C1103   1.358       .  D
C1103      C1104   1.546       .  S
C1103      C1135   1.488       .  S
C1104      C1108   1.545       .  S
C1104      C1106   1.544       .  S
C1104      H1110   1.111       .  S
C1105      H1111   1.086       .  S
C1105      C1106   1.373       .  D
C1106      C1307   1.507       .  S
C1107      H1112   1.086       .  S
C1107      C1108   1.366       .  D
C1108      C1274   1.492       .  S
N1113      C1118   1.350       .  A
N1113      C2497   1.349   1_455  A
N1113      H1145   1.040       .  S
N1114      C1122   1.350       .  A
N1115      C1120   1.348       .  A
N1115      C2499   1.350   1_455  A
N1115      H1146   1.036       .  S
N1116      C1124   1.349       .  A
C1117      N2493   1.349       .  A
C1117      C1125   1.382       .  A
C1117      C1133   1.401       .  A
C1118      C1134   1.401       .  A
C1118      C1126   1.380       .  A
C1119      N2495   1.350       .  A
C1119      C1127   1.380       .  A
C1119      C1136   1.403       .  A
C1120      C1135   1.404       .  A
C1120      C1128   1.381       .  A
C1121      C1133   1.406       .  A
C1121      C1129   1.378       .  A
C1122      C1136   1.408       .  A
C1122      C1130   1.378       .  A
C1123      C1131   1.377       .  A
C1123      C1134   1.404       .  A
C1124      C1132   1.379       .  A
C1124      C1135   1.408       .  A
C1125      C2506   1.379       .  A
C1125      H1137   1.082       .  S
C1126      C2505   1.379   1_455  A
C1126      H1138   1.082       .  S
C1127      C2508   1.377       .  A
C1127      H1139   1.082       .  S
C1128      C2507   1.377   1_455  A
C1128      H1140   1.081       .  S
C1129      H1141   1.081       .  S
C1130      H1142   1.081       .  S
C1131      H1143   1.081       .  S
C1132      H1144   1.080       .  S
C1147      C1148   1.540       .  S
C1147      C1153   1.536       .  S
C1147      C1151   1.544       .  S
C1147      C1371   1.466       .  S
C1148      H1155   1.086       .  S
C1148      C1149   1.364       .  D
C1149      C1150   1.542       .  S
C1149      C1354   1.487       .  S
C1150      C1154   1.547       .  S
C1150      C1152   1.544       .  S
C1150      H1156   1.112       .  S
C1151      H1157   1.086       .  S
C1151      C1152   1.366       .  D
C1152      C1193   1.495       .  S
C1153      H1158   1.086       .  S
C1153      C1154   1.360       .  D
C1154      C1237   1.491       .  S
C1159      C1160   1.545       .  S
C1159      C1165   1.531       .  S
C1159      C1163   1.535       .  S
C1159      C1375   1.457       .  S
C1160      H1167   1.086       .  S
C1160      C1161   1.368       .  D
C1161      C1162   1.542       .  S
C1161      C1238   1.491       .  S
C1162      C1166   1.544       .  S
C1162      C1164   1.545       .  S
C1162      H1168   1.112       .  S
C1163      H1169   1.086       .  S
C1163      C1164   1.360       .  D
C1164      C1192   1.489       .  S
C1165      H1170   1.087       .  S
C1165      C1166   1.358       .  D
C1166      C1272   1.482       .  S
N1171      C1176   1.348       .  A
N1171      H1203   1.040       .  S
N1172      C1179   1.351   1_655  A
N1172      C2560   1.350       .  A
N1173      C1178   1.353       .  A
N1173      H1204   1.039       .  S
N1174      C1181   1.351   1_655  A
N1174      C2562   1.350       .  A
C1175      C1183   1.382       .  A
C1175      C1191   1.401       .  A
C1176      C1192   1.401       .  A
C1176      C1184   1.382       .  A
C1177      C1185   1.382       .  A
C1177      C1194   1.411       .  A
C1178      C1193   1.411       .  A
C1178      C1186   1.382       .  A
C1179      C1191   1.405       .  A
C1179      C1187   1.377       .  A
C1180      N2552   1.350       .  A
C1180      C1194   1.406       .  A
C1180      C1188   1.379       .  A
C1181      C1189   1.377       .  A
C1181      C1192   1.405       .  A
C1182      N2554   1.350       .  A
C1182      C1190   1.379       .  A
C1182      C1193   1.406       .  A
C1183      H1195   1.082       .  S
C1184      H1196   1.082       .  S
C1185      H1197   1.082       .  S
C1186      H1198   1.082       .  S
C1187      C2568   1.374   1_455  A
C1187      H1199   1.080       .  S
C1188      C2567   1.374       .  A
C1188      H1200   1.080       .  S
C1189      C2570   1.374   1_455  A
C1189      H1201   1.080       .  S
C1190      C2569   1.374       .  A
C1190      H1202   1.080       .  S
C1205      C1206   1.542       .  S
C1205      C1211   1.532       .  S
C1205      C1209   1.552       .  S
C1205      C1380   1.478       .  S
C1206      H1213   1.086       .  S
C1206      C1207   1.366       .  D
C1207      C1208   1.545       .  S
C1207      C1273   1.492       .  S
C1208      C1212   1.546       .  S
C1208      C1210   1.544       .  S
C1208      H1214   1.111       .  S
C1209      H1215   1.086       .  S
C1209      C1210   1.373       .  D
C1210      C1306   1.506       .  S
C1211      H1216   1.087       .  S
C1211      C1212   1.358       .  D
C1212      C1239   1.488       .  S
N1217      C1222   1.350       .  A
N1217      C2601   1.349   1_455  A
N1217      H1249   1.040       .  S
N1218      C1226   1.350       .  A
N1219      C1224   1.348       .  A
N1219      C2603   1.350   1_455  A
N1219      H1250   1.036       .  S
N1220      C1228   1.349       .  A
C1221      N2597   1.349       .  A
C1221      C1229   1.382       .  A
C1221      C1237   1.401       .  A
C1222      C1238   1.401       .  A
C1222      C1230   1.380       .  A
C1223      N2599   1.350       .  A
C1223      C1231   1.380       .  A
C1223      C1240   1.403       .  A
C1224      C1239   1.404       .  A
C1224      C1232   1.381       .  A
C1225      C1237   1.406       .  A
C1225      C1233   1.378       .  A
C1226      C1240   1.408       .  A
C1226      C1234   1.378       .  A
C1227      C1235   1.377       .  A
C1227      C1238   1.404       .  A
C1228      C1236   1.379       .  A
C1228      C1239   1.407       .  A
C1229      C2610   1.379       .  A
C1229      H1241   1.082       .  S
C1230      C2609   1.379   1_455  A
C1230      H1242   1.082       .  S
C1231      C2612   1.377       .  A
C1231      H1243   1.082       .  S
C1232      C2611   1.377   1_455  A
C1232      H1244   1.081       .  S
C1233      H1245   1.081       .  S
C1234      H1246   1.081       .  S
C1235      H1247   1.081       .  S
C1236      H1248   1.080       .  S
C1240      C1321   1.490       .  S
N1251      C1256   1.347       .  A
N1251      H1283   1.038       .  S
N1252      C1260   1.348       .  A
N1253      C1258   1.350       .  A
N1253      H1284   1.039       .  S
N1254      C1262   1.348       .  A
C1255      C1263   1.380       .  A
C1255      C1271   1.398       .  A
C1256      C1272   1.398       .  A
C1256      C1264   1.380       .  A
C1257      C1265   1.381       .  A
C1257      C1274   1.405       .  A
C1258      C1273   1.405       .  A
C1258      C1266   1.381       .  A
C1259      C1271   1.404       .  A
C1259      C1267   1.378       .  A
C1260      C1274   1.403       .  A
C1260      C1268   1.378       .  A
C1261      C1269   1.378       .  A
C1261      C1272   1.404       .  A
C1262      C1270   1.378       .  A
C1262      C1273   1.403       .  A
C1263      H1275   1.081       .  S
C1264      H1276   1.081       .  S
C1265      H1277   1.082       .  S
C1266      H1278   1.082       .  S
C1267      H1279   1.080       .  S
C1268      H1280   1.081       .  S
C1269      H1281   1.080       .  S
C1270      H1282   1.081       .  S
N1285      C1290   1.354       .  A
N1285      C2669   1.354   1_455  A
N1285      H1317   1.038       .  S
N1286      C1293   1.352       .  A
N1287      C1292   1.354       .  A
N1287      C2671   1.354   1_455  A
N1287      H1318   1.038       .  S
N1288      C1295   1.355       .  A
C1289      N2665   1.354       .  A
C1289      C1297   1.381       .  A
C1289      C1305   1.412       .  A
C1290      C1306   1.413       .  A
C1290      C1298   1.382       .  A
C1291      N2667   1.354       .  A
C1291      C1299   1.381       .  A
C1291      C1308   1.412       .  A
C1292      C1307   1.413       .  A
C1292      C1300   1.382       .  A
C1293      C1305   1.410       .  A
C1293      C1301   1.378       .  A
C1294      C1308   1.410       .  A
C1294      C1302   1.378       .  A
C1295      C1303   1.378       .  A
C1295      C1306   1.416       .  A
C1296      C1304   1.378       .  A
C1296      C1307   1.416       .  A
C1297      C2678   1.382       .  A
C1297      H1309   1.082       .  S
C1298      C2677   1.382   1_455  A
C1298      H1310   1.082       .  S
C1299      C2680   1.382       .  A
C1299      H1311   1.082       .  S
C1300      C2679   1.382   1_455  A
C1300      H1312   1.082       .  S
C1301      H1313   1.080       .  S
C1302      H1314   1.080       .  S
C1303      H1315   1.080       .  S
C1304      H1316   1.080       .  S
C1305      C1324   1.502       .  S
C1319      C1320   1.544       .  S
C1319      C1325   1.531       .  S
C1319      C1323   1.544       .  S
C1319      C1377   1.465       .  S
C1320      H1327   1.086       .  S
C1320      C1321   1.368       .  D
C1321      C1322   1.541       .  S
C1322      C1326   1.544       .  S
C1322      C1324   1.547       .  S
C1322      H1328   1.112       .  S
C1323      H1329   1.086       .  S
C1323      C1324   1.367       .  D
C1325      H1330   1.087       .  S
C1325      C1326   1.356       .  D
C1326      C1351   1.481       .  S
N1331      C1335   1.346       .  A
N1331      H1363   1.041       .  S
N1332      C1340   1.347       .  A
N1333      C1337   1.350       .  A
N1333      H1364   1.034       .  S
N1334      C1342   1.347       .  A
C1335      C1343   1.380       .  A
C1335      C1351   1.393       .  A
C1336      C1352   1.393       .  A
C1336      C1344   1.380       .  A
C1337      C1345   1.381       .  A
C1337      C1354   1.408       .  A
C1338      C1353   1.408       .  A
C1338      C1346   1.381       .  A
C1339      C1351   1.401       .  A
C1339      C1347   1.378       .  A
C1340      C1354   1.405       .  A
C1340      C1348   1.379       .  A
C1341      C1349   1.378       .  A
C1341      C1352   1.401       .  A
C1342      C1350   1.379       .  A
C1342      C1353   1.405       .  A
C1343      H1355   1.082       .  S
C1344      H1356   1.082       .  S
C1345      H1357   1.081       .  S
C1346      H1358   1.081       .  S
C1347      H1359   1.081       .  S
C1348      H1360   1.081       .  S
C1349      H1361   1.081       .  S
C1350      H1362   1.081       .  S
C1365      C1366   1.205       .  T
C1367      C1368   1.205       .  T
C1369      C1370   1.200       .  T
C1371      C1372   1.205       .  T
C1373      C1374   1.212       .  T
C1375      C1376   1.200       .  T
C1377      C1378   1.205       .  T
C1379      C1380   1.212       .  T
O1381      C1389   1.269       .  A
O1381     Co1401   2.013       .  S
O1382      C1390   1.242       .  A
O1382     Co1402   1.962       .  S
O1383      C1391   1.257       .  A
O1383     Co1403   1.960       .  S
O1384      C1392   1.252       .  A
O1384     Co1404   2.000       .  S
O1385      C1391   1.269       .  A
O1385     Co1402   2.013       .  S
O1386      C1392   1.242       .  A
O1386     Co1401   1.962       .  S
O1387      C1390   1.252       .  A
O1387     Co1404   2.000       .  S
O1388      C1389   1.257       .  A
O1388     Co1403   1.960       .  S
C1389      C1721   1.423       .  S
C1390      C1711   1.433       .  S
C1391      C1714   1.423       .  S
C1392      C1717   1.433       .  S
O1393      C1406   1.272       .  A
O1393     Co1401   1.905       .  S
O1394      C1407   1.260       .  A
O1394     Co1402   1.986       .  S
O1395      C1408   1.265       .  A
O1395     Co1403   2.015       .  S
O1396      C1409   1.292       .  A
O1396     Co1404   2.054       .  S
O1397      C1409   1.272       .  A
O1397     Co1402   1.905       .  S
O1398      C1408   1.260       .  A
O1398     Co1401   1.986       .  S
O1399      C1406   1.292       .  A
O1399     Co1404   2.054       .  S
O1400      C1407   1.265       .  A
O1400     Co1403   2.015       .  S
Co1401     O1405   1.944       .  S
Co1402     O1405   1.944       .  S
Co1403     O1405   2.080       .  S
Co1404     O1405   2.252       .  S
C1406      C1723   1.433       .  S
C1407      C1718   1.443       .  S
C1408      C1724   1.443       .  S
C1409      C1713   1.433       .  S
C1410      C1411   1.536       .  S
C1410      C1416   1.540       .  S
C1410      C1414   1.544       .  S
C1410      C1710   1.466       .  S
C1411      H1418   1.086       .  S
C1411      C1412   1.360       .  D
C1412      C1413   1.547       .  S
C1412      C1478   1.491       .  S
C1413      C1417   1.542       .  S
C1413      C1415   1.544       .  S
C1413      H1419   1.112       .  S
C1414      H1420   1.086       .  S
C1414      C1415   1.366       .  D
C1415      C1539   1.495       .  S
C1416      H1421   1.086       .  S
C1416      C1417   1.364       .  D
C1417      C1698   1.487       .  S
C1422      C1423   1.531       .  S
C1422      C1428   1.544       .  S
C1422      C1426   1.544       .  S
C1422      C1712   1.465       .  S
C1423      H1430   1.087       .  S
C1423      C1424   1.356       .  D
C1424      C1425   1.544       .  S
C1424      C1697   1.481       .  S
C1425      C1429   1.541       .  S
C1425      C1427   1.547       .  S
C1425      H1431   1.112       .  S
C1426      H1432   1.086       .  S
C1426      C1427   1.367       .  D
C1427      C1653   1.502       .  S
C1428      H1433   1.086       .  S
C1428      C1429   1.368       .  D
C1429      C1481   1.490       .  S
C1434      C1435   1.531       .  S
C1434      C1440   1.545       .  S
C1434      C1438   1.535       .  S
C1434      C1715   1.457       .  S
C1435      H1442   1.087       .  S
C1435      C1436   1.358       .  D
C1436      C1437   1.544       .  S
C1436      C1616   1.482       .  S
C1437      C1441   1.542       .  S
C1437      C1439   1.545       .  S
C1437      H1443   1.112       .  S
C1438      H1444   1.086       .  S
C1438      C1439   1.360       .  D
C1439      C1536   1.489       .  S
C1440      H1445   1.086       .  S
C1440      C1441   1.368       .  D
C1441      C1479   1.491       .  S
C1446      C1447   1.532       .  S
C1446      C1452   1.542       .  S
C1446      C1450   1.553       .  S
C1446      C1719   1.478       .  S
C1447      H1454   1.087       .  S
C1447      C1448   1.358       .  D
C1448      C1449   1.546       .  S
C1448      C1480   1.488       .  S
C1449      C1453   1.545       .  S
C1449      C1451   1.544       .  S
C1449      H1455   1.111       .  S
C1450      H1456   1.086       .  S
C1450      C1451   1.373       .  D
C1451      C1652   1.507       .  S
C1452      H1457   1.086       .  S
C1452      C1453   1.366       .  D
C1453      C1619   1.492       .  S
N1458      C1463   1.350       .  A
N1458      H1490   1.040       .  S
N1459      C2156   1.349       .  A
N1459      C1467   1.350   1_565  A
N1460      C1465   1.348       .  A
N1460      H1491   1.036       .  S
N1461      C2158   1.349       .  A
N1461      C1469   1.349   1_565  A
C1462      C1470   1.382       .  A
C1462      C1478   1.401       .  A
C1463      C1479   1.401       .  A
C1463      C1471   1.380       .  A
C1464      C1472   1.380       .  A
C1464      C1481   1.403       .  A
C1465      C1480   1.404       .  A
C1465      C1473   1.381       .  A
C1466      N2149   1.349       .  A
C1466      C1478   1.406       .  A
C1466      C1474   1.378       .  A
C1467      C1481   1.408       .  A
C1467      C1475   1.378       .  A
C1468      N2151   1.349       .  A
C1468      C1476   1.377       .  A
C1468      C1479   1.404       .  A
C1469      C1477   1.379       .  A
C1469      C1480   1.408       .  A
C1470      H1482   1.082       .  S
C1471      H1483   1.082       .  S
C1472      H1484   1.082       .  S
C1473      H1485   1.081       .  S
C1474      C2165   1.377       .  A
C1474      H1486   1.081       .  S
C1475      C2164   1.377   1_545  A
C1475      H1487   1.081       .  S
C1476      C2167   1.376       .  A
C1476      H1488   1.081       .  S
C1477      C2166   1.376   1_545  A
C1477      H1489   1.080       .  S
C1492      C1493   1.540       .  S
C1492      C1498   1.536       .  S
C1492      C1496   1.544       .  S
C1492      C1716   1.466       .  S
C1493      H1500   1.086       .  S
C1493      C1494   1.364       .  D
C1494      C1495   1.542       .  S
C1494      C1699   1.487       .  S
C1495      C1499   1.547       .  S
C1495      C1497   1.544       .  S
C1495      H1501   1.112       .  S
C1496      H1502   1.086       .  S
C1496      C1497   1.366       .  D
C1497      C1538   1.495       .  S
C1498      H1503   1.086       .  S
C1498      C1499   1.360       .  D
C1499      C1582   1.491       .  S
C1504      C1505   1.545       .  S
C1504      C1510   1.531       .  S
C1504      C1508   1.535       .  S
C1504      C1720   1.457       .  S
C1505      H1512   1.086       .  S
C1505      C1506   1.368       .  D
C1506      C1507   1.542       .  S
C1506      C1583   1.491       .  S
C1507      C1511   1.544       .  S
C1507      C1509   1.545       .  S
C1507      H1513   1.112       .  S
C1508      H1514   1.086       .  S
C1508      C1509   1.360       .  D
C1509      C1537   1.489       .  S
C1510      H1515   1.087       .  S
C1510      C1511   1.358       .  D
C1511      C1617   1.482       .  S
N1516      C1521   1.348       .  A
N1516      C1865   1.348   1_554  A
N1516      H1548   1.040       .  S
N1517      C1524   1.351       .  A
N1518      C1523   1.353       .  A
N1518      C1867   1.353   1_554  A
N1518      H1549   1.039       .  S
N1519      C1526   1.351       .  A
C1520      N1861   1.348       .  A
C1520      C1528   1.382       .  A
C1520      C1536   1.401       .  A
C1521      C1537   1.401       .  A
C1521      C1529   1.382       .  A
C1522      N1863   1.353       .  A
C1522      C1530   1.382       .  A
C1522      C1539   1.411       .  A
C1523      C1538   1.411       .  A
C1523      C1531   1.382       .  A
C1524      C1536   1.405       .  A
C1524      C1532   1.377       .  A
C1525      C1539   1.406       .  A
C1525      C1533   1.379       .  A
C1526      C1534   1.377       .  A
C1526      C1537   1.405       .  A
C1527      C1535   1.379       .  A
C1527      C1538   1.406       .  A
C1528      C1874   1.377       .  A
C1528      H1540   1.082       .  S
C1529      C1873   1.377   1_554  A
C1529      H1541   1.082       .  S
C1530      C1876   1.383       .  A
C1530      H1542   1.082       .  S
C1531      C1875   1.383   1_554  A
C1531      H1543   1.082       .  S
C1532      H1544   1.080       .  S
C1533      H1545   1.080       .  S
C1534      H1546   1.080       .  S
C1535      H1547   1.080       .  S
C1550      C1551   1.542       .  S
C1550      C1556   1.532       .  S
C1550      C1554   1.552       .  S
C1550      C1725   1.478       .  S
C1551      H1558   1.086       .  S
C1551      C1552   1.366       .  D
C1552      C1553   1.545       .  S
C1552      C1618   1.492       .  S
C1553      C1557   1.546       .  S
C1553      C1555   1.544       .  S
C1553      H1559   1.111       .  S
C1554      H1560   1.086       .  S
C1554      C1555   1.373       .  D
C1555      C1651   1.506       .  S
C1556      H1561   1.087       .  S
C1556      C1557   1.358       .  D
C1557      C1584   1.488       .  S
N1562      C1567   1.350       .  A
N1562      H1594   1.040       .  S
N1563      C2260   1.349       .  A
N1563      C1571   1.350   1_565  A
N1564      C1569   1.348       .  A
N1564      H1595   1.036       .  S
N1565      C2262   1.349       .  A
N1565      C1573   1.349   1_565  A
C1566      C1574   1.382       .  A
C1566      C1582   1.402       .  A
C1567      C1583   1.401       .  A
C1567      C1575   1.380       .  A
C1568      C1576   1.380       .  A
C1568      C1585   1.403       .  A
C1569      C1584   1.404       .  A
C1569      C1577   1.381       .  A
C1570      N2253   1.349       .  A
C1570      C1582   1.406       .  A
C1570      C1578   1.378       .  A
C1571      C1585   1.408       .  A
C1571      C1579   1.378       .  A
C1572      N2255   1.349       .  A
C1572      C1580   1.377       .  A
C1572      C1583   1.404       .  A
C1573      C1581   1.379       .  A
C1573      C1584   1.407       .  A
C1574      H1586   1.082       .  S
C1575      H1587   1.082       .  S
C1576      H1588   1.082       .  S
C1577      H1589   1.081       .  S
C1578      C2269   1.377       .  A
C1578      H1590   1.081       .  S
C1579      C2268   1.377   1_545  A
C1579      H1591   1.081       .  S
C1580      C2271   1.376       .  A
C1580      H1592   1.081       .  S
C1581      C2270   1.376   1_545  A
C1581      H1593   1.080       .  S
C1585      C1666   1.490       .  S
N1596      C1601   1.347       .  A
N1596      C1945   1.347   1_554  A
N1596      H1628   1.038       .  S
N1597      C2294   1.348   1_545  A
N1597      C1605   1.348       .  A
N1598      C1603   1.350       .  A
N1598      C1947   1.350   1_554  A
N1598      H1629   1.039       .  S
N1599      C2296   1.348   1_545  A
N1599      C1607   1.348       .  A
C1600      N1941   1.347       .  A
C1600      C1608   1.380       .  A
C1600      C1616   1.398       .  A
C1601      C1617   1.398       .  A
C1601      C1609   1.380       .  A
C1602      N1943   1.350       .  A
C1602      C1610   1.381       .  A
C1602      C1619   1.405       .  A
C1603      C1618   1.405       .  A
C1603      C1611   1.381       .  A
C1604      N2287   1.348       .  A
C1604      C1616   1.404       .  A
C1604      C1612   1.378       .  A
C1605      C1619   1.403       .  A
C1605      C1613   1.378       .  A
C1606      N2289   1.348       .  A
C1606      C1614   1.378       .  A
C1606      C1617   1.404       .  A
C1607      C1615   1.378       .  A
C1607      C1618   1.403       .  A
C1608      C1954   1.373       .  A
C1608      H1620   1.081       .  S
C1609      C1953   1.373   1_554  A
C1609      H1621   1.081       .  S
C1610      C1956   1.381       .  A
C1610      H1622   1.082       .  S
C1611      C1955   1.381   1_554  A
C1611      H1623   1.082       .  S
C1612      C2303   1.375       .  A
C1612      H1624   1.080       .  S
C1613      C2302   1.375   1_545  A
C1613      H1625   1.081       .  S
C1614      C2305   1.375       .  A
C1614      H1626   1.080       .  S
C1615      C2304   1.375   1_545  A
C1615      H1627   1.081       .  S
N1630      C1635   1.354       .  A
N1630      H1662   1.038       .  S
N1631      C1638   1.352       .  A
N1631      C1984   1.352   1_554  A
N1632      C1637   1.354       .  A
N1632      H1663   1.038       .  S
N1633      C1640   1.355       .  A
N1633      C1986   1.355   1_554  A
C1634      C1642   1.381       .  A
C1634      C1650   1.412       .  A
C1635      C1651   1.413       .  A
C1635      C1643   1.382       .  A
C1636      C1644   1.381       .  A
C1636      C1653   1.412       .  A
C1637      C1652   1.413       .  A
C1637      C1645   1.382       .  A
C1638      C1650   1.410       .  A
C1638      C1646   1.378       .  A
C1639      N1976   1.352       .  A
C1639      C1653   1.410       .  A
C1639      C1647   1.378       .  A
C1640      C1648   1.378       .  A
C1640      C1651   1.416       .  A
C1641      N1978   1.355       .  A
C1641      C1649   1.378       .  A
C1641      C1652   1.416       .  A
C1642      H1654   1.082       .  S
C1643      H1655   1.082       .  S
C1644      H1656   1.082       .  S
C1645      H1657   1.082       .  S
C1646      C1992   1.374   1_554  A
C1646      H1658   1.080       .  S
C1647      C1991   1.374       .  A
C1647      H1659   1.080       .  S
C1648      C1994   1.378   1_554  A
C1648      H1660   1.080       .  S
C1649      C1993   1.378       .  A
C1649      H1661   1.080       .  S
C1650      C1669   1.502       .  S
C1664      C1665   1.544       .  S
C1664      C1670   1.531       .  S
C1664      C1668   1.544       .  S
C1664      C1722   1.465       .  S
C1665      H1672   1.086       .  S
C1665      C1666   1.368       .  D
C1666      C1667   1.541       .  S
C1667      C1671   1.544       .  S
C1667      C1669   1.547       .  S
C1667      H1673   1.112       .  S
C1668      H1674   1.086       .  S
C1668      C1669   1.367       .  D
C1670      H1675   1.087       .  S
C1670      C1671   1.356       .  D
C1671      C1696   1.481       .  S
N1676      C2026   1.346   1_554  A
N1676      C1680   1.346       .  A
N1676      H1708   1.041       .  S
N1677      C2374   1.346       .  A
N1677      C1685   1.347       .  A
N1678      C2028   1.350   1_554  A
N1678      C1682   1.350       .  A
N1678      H1709   1.034       .  S
N1679      C2376   1.346       .  A
N1679      C1687   1.347       .  A
C1680      C1688   1.380       .  A
C1680      C1696   1.393       .  A
C1681      N2021   1.346       .  A
C1681      C1697   1.393       .  A
C1681      C1689   1.380       .  A
C1682      C1690   1.381       .  A
C1682      C1699   1.408       .  A
C1683      N2023   1.350       .  A
C1683      C1698   1.408       .  A
C1683      C1691   1.381       .  A
C1684      N2367   1.346   1_545  A
C1684      C1696   1.401       .  A
C1684      C1692   1.378       .  A
C1685      C1699   1.405       .  A
C1685      C1693   1.379       .  A
C1686      N2369   1.346   1_545  A
C1686      C1694   1.378       .  A
C1686      C1697   1.401       .  A
C1687      C1695   1.379       .  A
C1687      C1698   1.405       .  A
C1688      C2034   1.374   1_554  A
C1688      H1700   1.082       .  S
C1689      C2033   1.374       .  A
C1689      H1701   1.082       .  S
C1690      C2036   1.380   1_554  A
C1690      H1702   1.081       .  S
C1691      C2035   1.380       .  A
C1691      H1703   1.081       .  S
C1692      C2383   1.376   1_545  A
C1692      H1704   1.081       .  S
C1693      C2382   1.376       .  A
C1693      H1705   1.081       .  S
C1694      C2385   1.376   1_545  A
C1694      H1706   1.081       .  S
C1695      C2384   1.376       .  A
C1695      H1707   1.081       .  S
C1710      C1711   1.205       .  T
C1712      C1713   1.205       .  T
C1714      C1715   1.200       .  T
C1716      C1717   1.205       .  T
C1718      C1719   1.212       .  T
C1720      C1721   1.200       .  T
C1722      C1723   1.205       .  T
C1724      C1725   1.212       .  T
O1726      C1734   1.269       .  A
O1726     Co1746   2.013       .  S
O1727      C1735   1.242       .  A
O1727     Co1747   1.962       .  S
O1728      C1736   1.257       .  A
O1728     Co1748   1.960       .  S
O1729      C1737   1.252       .  A
O1729     Co1749   2.000       .  S
O1730      C1736   1.269       .  A
O1730     Co1747   2.013       .  S
O1731      C1737   1.242       .  A
O1731     Co1746   1.962       .  S
O1732      C1735   1.252       .  A
O1732     Co1749   2.000       .  S
O1733      C1734   1.257       .  A
O1733     Co1748   1.960       .  S
C1734      C2066   1.423       .  S
C1735      C2056   1.433       .  S
C1736      C2059   1.423       .  S
C1737      C2062   1.433       .  S
O1738      C1751   1.272       .  A
O1738     Co1746   1.905       .  S
O1739      C1752   1.260       .  A
O1739     Co1747   1.986       .  S
O1740      C1753   1.265       .  A
O1740     Co1748   2.015       .  S
O1741      C1754   1.292       .  A
O1741     Co1749   2.054       .  S
O1742      C1754   1.272       .  A
O1742     Co1747   1.905       .  S
O1743      C1753   1.260       .  A
O1743     Co1746   1.986       .  S
O1744      C1751   1.292       .  A
O1744     Co1749   2.054       .  S
O1745      C1752   1.265       .  A
O1745     Co1748   2.015       .  S
Co1746     O1750   1.945       .  S
Co1747     O1750   1.945       .  S
Co1748     O1750   2.080       .  S
Co1749     O1750   2.252       .  S
C1751      C2068   1.433       .  S
C1752      C2063   1.443       .  S
C1753      C2069   1.443       .  S
C1754      C2058   1.433       .  S
C1755      C1756   1.536       .  S
C1755      C1761   1.540       .  S
C1755      C1759   1.544       .  S
C1755      C2055   1.466       .  S
C1756      H1763   1.086       .  S
C1756      C1757   1.360       .  D
C1757      C1758   1.547       .  S
C1757      C1823   1.491       .  S
C1758      C1762   1.542       .  S
C1758      C1760   1.544       .  S
C1758      H1764   1.112       .  S
C1759      H1765   1.086       .  S
C1759      C1760   1.366       .  D
C1760      C1884   1.495       .  S
C1761      H1766   1.086       .  S
C1761      C1762   1.364       .  D
C1762      C2043   1.487       .  S
C1767      C1768   1.531       .  S
C1767      C1773   1.544       .  S
C1767      C1771   1.544       .  S
C1767      C2057   1.465       .  S
C1768      H1775   1.087       .  S
C1768      C1769   1.356       .  D
C1769      C1770   1.544       .  S
C1769      C2042   1.481       .  S
C1770      C1774   1.541       .  S
C1770      C1772   1.547       .  S
C1770      H1776   1.112       .  S
C1771      H1777   1.086       .  S
C1771      C1772   1.367       .  D
C1772      C1998   1.502       .  S
C1773      H1778   1.086       .  S
C1773      C1774   1.368       .  D
C1774      C1826   1.490       .  S
C1779      C1780   1.531       .  S
C1779      C1785   1.545       .  S
C1779      C1783   1.535       .  S
C1779      C2060   1.457       .  S
C1780      H1787   1.087       .  S
C1780      C1781   1.358       .  D
C1781      C1782   1.544       .  S
C1781      C1961   1.482       .  S
C1782      C1786   1.542       .  S
C1782      C1784   1.545       .  S
C1782      H1788   1.112       .  S
C1783      H1789   1.086       .  S
C1783      C1784   1.360       .  D
C1784      C1881   1.489       .  S
C1785      H1790   1.086       .  S
C1785      C1786   1.368       .  D
C1786      C1824   1.491       .  S
C1791      C1792   1.532       .  S
C1791      C1797   1.542       .  S
C1791      C1795   1.552       .  S
C1791      C2064   1.478       .  S
C1792      H1799   1.087       .  S
C1792      C1793   1.358       .  D
C1793      C1794   1.546       .  S
C1793      C1825   1.488       .  S
C1794      C1798   1.545       .  S
C1794      C1796   1.544       .  S
C1794      H1800   1.111       .  S
C1795      H1801   1.086       .  S
C1795      C1796   1.373       .  D
C1796      C1997   1.507       .  S
C1797      H1802   1.086       .  S
C1797      C1798   1.366       .  D
C1798      C1964   1.492       .  S
N1803      C1808   1.350       .  A
N1803      H1835   1.040       .  S
N1804      C2501   1.349       .  A
N1804      C1812   1.350   1_565  A
N1805      C1810   1.348       .  A
N1805      H1836   1.036       .  S
N1806      C2503   1.349       .  A
N1806      C1814   1.349   1_565  A
C1807      C1815   1.382       .  A
C1807      C1823   1.401       .  A
C1808      C1824   1.401       .  A
C1808      C1816   1.380       .  A
C1809      C1817   1.380       .  A
C1809      C1826   1.403       .  A
C1810      C1825   1.404       .  A
C1810      C1818   1.381       .  A
C1811      N2494   1.349       .  A
C1811      C1823   1.406       .  A
C1811      C1819   1.378       .  A
C1812      C1826   1.408       .  A
C1812      C1820   1.378       .  A
C1813      N2496   1.349       .  A
C1813      C1821   1.377       .  A
C1813      C1824   1.404       .  A
C1814      C1822   1.379       .  A
C1814      C1825   1.408       .  A
C1815      H1827   1.082       .  S
C1816      H1828   1.082       .  S
C1817      H1829   1.082       .  S
C1818      H1830   1.081       .  S
C1819      C2510   1.377       .  A
C1819      H1831   1.081       .  S
C1820      C2509   1.377   1_545  A
C1820      H1832   1.081       .  S
C1821      C2512   1.376       .  A
C1821      H1833   1.081       .  S
C1822      C2511   1.376   1_545  A
C1822      H1834   1.080       .  S
C1837      C1838   1.540       .  S
C1837      C1843   1.536       .  S
C1837      C1841   1.544       .  S
C1837      C2061   1.466       .  S
C1838      H1845   1.086       .  S
C1838      C1839   1.364       .  D
C1839      C1840   1.542       .  S
C1839      C2044   1.487       .  S
C1840      C1844   1.547       .  S
C1840      C1842   1.544       .  S
C1840      H1846   1.112       .  S
C1841      H1847   1.086       .  S
C1841      C1842   1.366       .  D
C1842      C1883   1.495       .  S
C1843      H1848   1.086       .  S
C1843      C1844   1.360       .  D
C1844      C1927   1.491       .  S
C1849      C1850   1.545       .  S
C1849      C1855   1.531       .  S
C1849      C1853   1.535       .  S
C1849      C2065   1.457       .  S
C1850      H1857   1.086       .  S
C1850      C1851   1.368       .  D
C1851      C1852   1.542       .  S
C1851      C1928   1.491       .  S
C1852      C1856   1.544       .  S
C1852      C1854   1.545       .  S
C1852      H1858   1.112       .  S
C1853      H1859   1.086       .  S
C1853      C1854   1.360       .  D
C1854      C1882   1.489       .  S
C1855      H1860   1.087       .  S
C1855      C1856   1.358       .  D
C1856      C1962   1.482       .  S
N1861      C1866   1.348       .  A
N1861      H1893   1.040       .  S
N1862      C1869   1.351       .  A
N1863      C1868   1.353       .  A
N1863      H1894   1.039       .  S
N1864      C1871   1.351       .  A
C1865      C1873   1.382       .  A
C1865      C1881   1.401       .  A
C1866      C1882   1.401       .  A
C1866      C1874   1.382       .  A
C1867      C1875   1.382       .  A
C1867      C1884   1.411       .  A
C1868      C1883   1.411       .  A
C1868      C1876   1.382       .  A
C1869      C1881   1.405       .  A
C1869      C1877   1.377       .  A
C1870      C1884   1.406       .  A
C1870      C1878   1.379       .  A
C1871      C1879   1.377       .  A
C1871      C1882   1.405       .  A
C1872      C1880   1.379       .  A
C1872      C1883   1.406       .  A
C1873      H1885   1.082       .  S
C1874      H1886   1.082       .  S
C1875      H1887   1.082       .  S
C1876      H1888   1.082       .  S
C1877      H1889   1.080       .  S
C1878      H1890   1.080       .  S
C1879      H1891   1.080       .  S
C1880      H1892   1.080       .  S
C1895      C1896   1.542       .  S
C1895      C1901   1.532       .  S
C1895      C1899   1.552       .  S
C1895      C2070   1.478       .  S
C1896      H1903   1.086       .  S
C1896      C1897   1.366       .  D
C1897      C1898   1.545       .  S
C1897      C1963   1.492       .  S
C1898      C1902   1.546       .  S
C1898      C1900   1.544       .  S
C1898      H1904   1.111       .  S
C1899      H1905   1.086       .  S
C1899      C1900   1.373       .  D
C1900      C1996   1.506       .  S
C1901      H1906   1.087       .  S
C1901      C1902   1.358       .  D
C1902      C1929   1.488       .  S
N1907      C1912   1.350       .  A
N1907      H1939   1.040       .  S
N1908      C2605   1.349       .  A
N1908      C1916   1.350   1_565  A
N1909      C1914   1.348       .  A
N1909      H1940   1.036       .  S
N1910      C2607   1.349       .  A
N1910      C1918   1.349   1_565  A
C1911      C1919   1.382       .  A
C1911      C1927   1.402       .  A
C1912      C1928   1.401       .  A
C1912      C1920   1.380       .  A
C1913      C1921   1.380       .  A
C1913      C1930   1.403       .  A
C1914      C1929   1.404       .  A
C1914      C1922   1.381       .  A
C1915      N2598   1.349       .  A
C1915      C1927   1.406       .  A
C1915      C1923   1.378       .  A
C1916      C1930   1.408       .  A
C1916      C1924   1.378       .  A
C1917      N2600   1.349       .  A
C1917      C1925   1.377       .  A
C1917      C1928   1.404       .  A
C1918      C1926   1.379       .  A
C1918      C1929   1.407       .  A
C1919      H1931   1.082       .  S
C1920      H1932   1.082       .  S
C1921      H1933   1.082       .  S
C1922      H1934   1.081       .  S
C1923      C2614   1.377       .  A
C1923      H1935   1.081       .  S
C1924      C2613   1.377   1_545  A
C1924      H1936   1.081       .  S
C1925      C2616   1.376       .  A
C1925      H1937   1.081       .  S
C1926      C2615   1.376   1_545  A
C1926      H1938   1.080       .  S
C1930      C2011   1.490       .  S
N1941      C1946   1.347       .  A
N1941      H1973   1.038       .  S
N1942      C2639   1.348   1_545  A
N1942      C1950   1.348       .  A
N1943      C1948   1.350       .  A
N1943      H1974   1.039       .  S
N1944      C2641   1.348   1_545  A
N1944      C1952   1.348       .  A
C1945      C1953   1.380       .  A
C1945      C1961   1.398       .  A
C1946      C1962   1.398       .  A
C1946      C1954   1.380       .  A
C1947      C1955   1.381       .  A
C1947      C1964   1.405       .  A
C1948      C1963   1.405       .  A
C1948      C1956   1.381       .  A
C1949      N2632   1.348       .  A
C1949      C1961   1.404       .  A
C1949      C1957   1.378       .  A
C1950      C1964   1.403       .  A
C1950      C1958   1.378       .  A
C1951      N2634   1.348       .  A
C1951      C1959   1.378       .  A
C1951      C1962   1.404       .  A
C1952      C1960   1.378       .  A
C1952      C1963   1.403       .  A
C1953      H1965   1.081       .  S
C1954      H1966   1.081       .  S
C1955      H1967   1.082       .  S
C1956      H1968   1.082       .  S
C1957      C2648   1.375       .  A
C1957      H1969   1.080       .  S
C1958      C2647   1.375   1_545  A
C1958      H1970   1.081       .  S
C1959      C2650   1.375       .  A
C1959      H1971   1.080       .  S
C1960      C2649   1.375   1_545  A
C1960      H1972   1.081       .  S
N1975      C1980   1.354       .  A
N1975      H2007   1.038       .  S
N1976      C1983   1.352       .  A
N1977      C1982   1.354       .  A
N1977      H2008   1.038       .  S
N1978      C1985   1.355       .  A
C1979      C1987   1.381       .  A
C1979      C1995   1.412       .  A
C1980      C1996   1.413       .  A
C1980      C1988   1.382       .  A
C1981      C1989   1.381       .  A
C1981      C1998   1.412       .  A
C1982      C1997   1.413       .  A
C1982      C1990   1.382       .  A
C1983      C1995   1.410       .  A
C1983      C1991   1.378       .  A
C1984      C1998   1.410       .  A
C1984      C1992   1.378       .  A
C1985      C1993   1.378       .  A
C1985      C1996   1.416       .  A
C1986      C1994   1.378       .  A
C1986      C1997   1.416       .  A
C1987      H1999   1.082       .  S
C1988      H2000   1.082       .  S
C1989      H2001   1.082       .  S
C1990      H2002   1.082       .  S
C1991      H2003   1.080       .  S
C1992      H2004   1.080       .  S
C1993      H2005   1.080       .  S
C1994      H2006   1.080       .  S
C1995      C2014   1.502       .  S
C2009      C2010   1.544       .  S
C2009      C2015   1.531       .  S
C2009      C2013   1.544       .  S
C2009      C2067   1.465       .  S
C2010      H2017   1.086       .  S
C2010      C2011   1.368       .  D
C2011      C2012   1.541       .  S
C2012      C2016   1.544       .  S
C2012      C2014   1.547       .  S
C2012      H2018   1.112       .  S
C2013      H2019   1.086       .  S
C2013      C2014   1.367       .  D
C2015      H2020   1.087       .  S
C2015      C2016   1.356       .  D
C2016      C2041   1.481       .  S
N2021      C2025   1.346       .  A
N2021      H2053   1.041       .  S
N2022      C2719   1.346       .  A
N2022      C2030   1.347       .  A
N2023      C2027   1.350       .  A
N2023      H2054   1.034       .  S
N2024      C2721   1.346       .  A
N2024      C2032   1.347       .  A
C2025      C2033   1.380       .  A
C2025      C2041   1.393       .  A
C2026      C2042   1.393       .  A
C2026      C2034   1.380       .  A
C2027      C2035   1.381       .  A
C2027      C2044   1.408       .  A
C2028      C2043   1.408       .  A
C2028      C2036   1.381       .  A
C2029      N2712   1.346   1_545  A
C2029      C2041   1.401       .  A
C2029      C2037   1.378       .  A
C2030      C2044   1.405       .  A
C2030      C2038   1.379       .  A
C2031      N2714   1.346   1_545  A
C2031      C2039   1.378       .  A
C2031      C2042   1.401       .  A
C2032      C2040   1.379       .  A
C2032      C2043   1.405       .  A
C2033      H2045   1.082       .  S
C2034      H2046   1.082       .  S
C2035      H2047   1.081       .  S
C2036      H2048   1.081       .  S
C2037      C2728   1.376   1_545  A
C2037      H2049   1.081       .  S
C2038      C2727   1.376       .  A
C2038      H2050   1.081       .  S
C2039      C2730   1.376   1_545  A
C2039      H2051   1.081       .  S
C2040      C2729   1.376       .  A
C2040      H2052   1.081       .  S
C2055      C2056   1.205       .  T
C2057      C2058   1.205       .  T
C2059      C2060   1.200       .  T
C2061      C2062   1.205       .  T
C2063      C2064   1.212       .  T
C2065      C2066   1.200       .  T
C2067      C2068   1.205       .  T
C2069      C2070   1.212       .  T
O2071      C2079   1.269       .  A
O2071     Co2091   2.013       .  S
O2072      C2080   1.242       .  A
O2072     Co2092   1.962       .  S
O2073      C2081   1.257       .  A
O2073     Co2093   1.960       .  S
O2074      C2082   1.252       .  A
O2074     Co2094   2.000       .  S
O2075      C2081   1.269       .  A
O2075     Co2092   2.013       .  S
O2076      C2082   1.242       .  A
O2076     Co2091   1.962       .  S
O2077      C2080   1.252       .  A
O2077     Co2094   2.000       .  S
O2078      C2079   1.257       .  A
O2078     Co2093   1.960       .  S
C2079      C2411   1.423       .  S
C2080      C2401   1.433       .  S
C2081      C2404   1.423       .  S
C2082      C2407   1.433       .  S
O2083      C2096   1.272       .  A
O2083     Co2091   1.905       .  S
O2084      C2097   1.260       .  A
O2084     Co2092   1.986       .  S
O2085      C2098   1.265       .  A
O2085     Co2093   2.015       .  S
O2086      C2099   1.292       .  A
O2086     Co2094   2.054       .  S
O2087      C2099   1.272       .  A
O2087     Co2092   1.905       .  S
O2088      C2098   1.260       .  A
O2088     Co2091   1.986       .  S
O2089      C2096   1.292       .  A
O2089     Co2094   2.054       .  S
O2090      C2097   1.265       .  A
O2090     Co2093   2.015       .  S
Co2091     O2095   1.944       .  S
Co2092     O2095   1.944       .  S
Co2093     O2095   2.080       .  S
Co2094     O2095   2.252       .  S
C2096      C2413   1.433       .  S
C2097      C2408   1.443       .  S
C2098      C2414   1.443       .  S
C2099      C2403   1.433       .  S
C2100      C2101   1.536       .  S
C2100      C2106   1.540       .  S
C2100      C2104   1.544       .  S
C2100      C2400   1.466       .  S
C2101      H2108   1.086       .  S
C2101      C2102   1.360       .  D
C2102      C2103   1.548       .  S
C2102      C2168   1.491       .  S
C2103      C2107   1.542       .  S
C2103      C2105   1.544       .  S
C2103      H2109   1.112       .  S
C2104      H2110   1.086       .  S
C2104      C2105   1.366       .  D
C2105      C2229   1.495       .  S
C2106      H2111   1.086       .  S
C2106      C2107   1.364       .  D
C2107      C2388   1.487       .  S
C2112      C2113   1.531       .  S
C2112      C2118   1.544       .  S
C2112      C2116   1.544       .  S
C2112      C2402   1.465       .  S
C2113      H2120   1.087       .  S
C2113      C2114   1.356       .  D
C2114      C2115   1.544       .  S
C2114      C2387   1.481       .  S
C2115      C2119   1.541       .  S
C2115      C2117   1.547       .  S
C2115      H2121   1.112       .  S
C2116      H2122   1.086       .  S
C2116      C2117   1.367       .  D
C2117      C2343   1.502       .  S
C2118      H2123   1.086       .  S
C2118      C2119   1.368       .  D
C2119      C2171   1.490       .  S
C2124      C2125   1.531       .  S
C2124      C2130   1.545       .  S
C2124      C2128   1.535       .  S
C2124      C2405   1.457       .  S
C2125      H2132   1.087       .  S
C2125      C2126   1.358       .  D
C2126      C2127   1.544       .  S
C2126      C2306   1.482       .  S
C2127      C2131   1.542       .  S
C2127      C2129   1.545       .  S
C2127      H2133   1.112       .  S
C2128      H2134   1.086       .  S
C2128      C2129   1.360       .  D
C2129      C2226   1.489       .  S
C2130      H2135   1.086       .  S
C2130      C2131   1.368       .  D
C2131      C2169   1.491       .  S
C2136      C2137   1.532       .  S
C2136      C2142   1.542       .  S
C2136      C2140   1.552       .  S
C2136      C2409   1.478       .  S
C2137      H2144   1.087       .  S
C2137      C2138   1.358       .  D
C2138      C2139   1.546       .  S
C2138      C2170   1.488       .  S
C2139      C2143   1.545       .  S
C2139      C2141   1.544       .  S
C2139      H2145   1.111       .  S
C2140      H2146   1.086       .  S
C2140      C2141   1.373       .  D
C2141      C2342   1.507       .  S
C2142      H2147   1.086       .  S
C2142      C2143   1.366       .  D
C2143      C2309   1.492       .  S
N2148      C2153   1.350       .  A
N2148      H2180   1.040       .  S
N2149      C2157   1.350       .  A
N2150      C2155   1.348       .  A
N2150      H2181   1.036       .  S
N2151      C2159   1.349       .  A
C2152      C2160   1.382       .  A
C2152      C2168   1.401       .  A
C2153      C2169   1.401       .  A
C2153      C2161   1.380       .  A
C2154      C2162   1.380       .  A
C2154      C2171   1.403       .  A
C2155      C2170   1.404       .  A
C2155      C2163   1.381       .  A
C2156      C2168   1.406       .  A
C2156      C2164   1.378       .  A
C2157      C2171   1.408       .  A
C2157      C2165   1.378       .  A
C2158      C2166   1.377       .  A
C2158      C2169   1.404       .  A
C2159      C2167   1.379       .  A
C2159      C2170   1.408       .  A
C2160      H2172   1.082       .  S
C2161      H2173   1.082       .  S
C2162      H2174   1.082       .  S
C2163      H2175   1.081       .  S
C2164      H2176   1.081       .  S
C2165      H2177   1.081       .  S
C2166      H2178   1.081       .  S
C2167      H2179   1.080       .  S
C2182      C2183   1.540       .  S
C2182      C2188   1.536       .  S
C2182      C2186   1.544       .  S
C2182      C2406   1.466       .  S
C2183      H2190   1.086       .  S
C2183      C2184   1.364       .  D
C2184      C2185   1.542       .  S
C2184      C2389   1.487       .  S
C2185      C2189   1.547       .  S
C2185      C2187   1.544       .  S
C2185      H2191   1.112       .  S
C2186      H2192   1.086       .  S
C2186      C2187   1.366       .  D
C2187      C2228   1.495       .  S
C2188      H2193   1.086       .  S
C2188      C2189   1.360       .  D
C2189      C2272   1.491       .  S
C2194      C2195   1.545       .  S
C2194      C2200   1.531       .  S
C2194      C2198   1.535       .  S
C2194      C2410   1.457       .  S
C2195      H2202   1.086       .  S
C2195      C2196   1.368       .  D
C2196      C2197   1.542       .  S
C2196      C2273   1.491       .  S
C2197      C2201   1.544       .  S
C2197      C2199   1.545       .  S
C2197      H2203   1.112       .  S
C2198      H2204   1.086       .  S
C2198      C2199   1.360       .  D
C2199      C2227   1.489       .  S
C2200      H2205   1.087       .  S
C2200      C2201   1.358       .  D
C2201      C2307   1.482       .  S
N2206      C2211   1.348       .  A
N2206      C2555   1.348   1_554  A
N2206      H2238   1.040       .  S
N2207      C2214   1.351       .  A
N2208      C2213   1.353       .  A
N2208      C2557   1.353   1_554  A
N2208      H2239   1.039       .  S
N2209      C2216   1.351       .  A
C2210      N2551   1.348       .  A
C2210      C2218   1.382       .  A
C2210      C2226   1.401       .  A
C2211      C2227   1.401       .  A
C2211      C2219   1.382       .  A
C2212      N2553   1.353       .  A
C2212      C2220   1.382       .  A
C2212      C2229   1.411       .  A
C2213      C2228   1.411       .  A
C2213      C2221   1.382       .  A
C2214      C2226   1.405       .  A
C2214      C2222   1.377       .  A
C2215      C2229   1.406       .  A
C2215      C2223   1.379       .  A
C2216      C2224   1.377       .  A
C2216      C2227   1.405       .  A
C2217      C2225   1.379       .  A
C2217      C2228   1.406       .  A
C2218      C2564   1.377       .  A
C2218      H2230   1.082       .  S
C2219      C2563   1.377   1_554  A
C2219      H2231   1.082       .  S
C2220      C2566   1.383       .  A
C2220      H2232   1.082       .  S
C2221      C2565   1.383   1_554  A
C2221      H2233   1.082       .  S
C2222      H2234   1.080       .  S
C2223      H2235   1.080       .  S
C2224      H2236   1.080       .  S
C2225      H2237   1.080       .  S
C2240      C2241   1.542       .  S
C2240      C2246   1.532       .  S
C2240      C2244   1.552       .  S
C2240      C2415   1.478       .  S
C2241      H2248   1.086       .  S
C2241      C2242   1.366       .  D
C2242      C2243   1.545       .  S
C2242      C2308   1.492       .  S
C2243      C2247   1.546       .  S
C2243      C2245   1.544       .  S
C2243      H2249   1.111       .  S
C2244      H2250   1.086       .  S
C2244      C2245   1.373       .  D
C2245      C2341   1.507       .  S
C2246      H2251   1.087       .  S
C2246      C2247   1.358       .  D
C2247      C2274   1.488       .  S
N2252      C2257   1.350       .  A
N2252      H2284   1.040       .  S
N2253      C2261   1.350       .  A
N2254      C2259   1.348       .  A
N2254      H2285   1.036       .  S
N2255      C2263   1.349       .  A
C2256      C2264   1.382       .  A
C2256      C2272   1.401       .  A
C2257      C2273   1.401       .  A
C2257      C2265   1.380       .  A
C2258      C2266   1.380       .  A
C2258      C2275   1.403       .  A
C2259      C2274   1.404       .  A
C2259      C2267   1.381       .  A
C2260      C2272   1.406       .  A
C2260      C2268   1.378       .  A
C2261      C2275   1.408       .  A
C2261      C2269   1.378       .  A
C2262      C2270   1.377       .  A
C2262      C2273   1.404       .  A
C2263      C2271   1.379       .  A
C2263      C2274   1.407       .  A
C2264      H2276   1.082       .  S
C2265      H2277   1.082       .  S
C2266      H2278   1.082       .  S
C2267      H2279   1.081       .  S
C2268      H2280   1.081       .  S
C2269      H2281   1.081       .  S
C2270      H2282   1.081       .  S
C2271      H2283   1.080       .  S
C2275      C2356   1.490       .  S
N2286      C2291   1.347       .  A
N2286      C2635   1.347   1_554  A
N2286      H2318   1.038       .  S
N2287      C2295   1.348       .  A
N2288      C2293   1.350       .  A
N2288      C2637   1.350   1_554  A
N2288      H2319   1.039       .  S
N2289      C2297   1.348       .  A
C2290      N2631   1.347       .  A
C2290      C2298   1.380       .  A
C2290      C2306   1.398       .  A
C2291      C2307   1.398       .  A
C2291      C2299   1.380       .  A
C2292      N2633   1.350       .  A
C2292      C2300   1.381       .  A
C2292      C2309   1.405       .  A
C2293      C2308   1.405       .  A
C2293      C2301   1.381       .  A
C2294      C2306   1.404       .  A
C2294      C2302   1.378       .  A
C2295      C2309   1.403       .  A
C2295      C2303   1.378       .  A
C2296      C2304   1.378       .  A
C2296      C2307   1.404       .  A
C2297      C2305   1.378       .  A
C2297      C2308   1.403       .  A
C2298      C2644   1.373       .  A
C2298      H2310   1.081       .  S
C2299      C2643   1.373   1_554  A
C2299      H2311   1.081       .  S
C2300      C2646   1.381       .  A
C2300      H2312   1.082       .  S
C2301      C2645   1.381   1_554  A
C2301      H2313   1.082       .  S
C2302      H2314   1.080       .  S
C2303      H2315   1.081       .  S
C2304      H2316   1.080       .  S
C2305      H2317   1.081       .  S
N2320      C2325   1.354       .  A
N2320      H2352   1.038       .  S
N2321      C2328   1.352       .  A
N2321      C2674   1.352   1_554  A
N2322      C2327   1.354       .  A
N2322      H2353   1.038       .  S
N2323      C2330   1.355       .  A
N2323      C2676   1.355   1_554  A
C2324      C2332   1.381       .  A
C2324      C2340   1.412       .  A
C2325      C2341   1.413       .  A
C2325      C2333   1.382       .  A
C2326      C2334   1.381       .  A
C2326      C2343   1.412       .  A
C2327      C2342   1.413       .  A
C2327      C2335   1.382       .  A
C2328      C2340   1.410       .  A
C2328      C2336   1.378       .  A
C2329      N2666   1.352       .  A
C2329      C2343   1.410       .  A
C2329      C2337   1.378       .  A
C2330      C2338   1.378       .  A
C2330      C2341   1.416       .  A
C2331      N2668   1.355       .  A
C2331      C2339   1.378       .  A
C2331      C2342   1.416       .  A
C2332      H2344   1.082       .  S
C2333      H2345   1.082       .  S
C2334      H2346   1.082       .  S
C2335      H2347   1.082       .  S
C2336      C2682   1.374   1_554  A
C2336      H2348   1.080       .  S
C2337      C2681   1.374       .  A
C2337      H2349   1.080       .  S
C2338      C2684   1.378   1_554  A
C2338      H2350   1.080       .  S
C2339      C2683   1.378       .  A
C2339      H2351   1.080       .  S
C2340      C2359   1.502       .  S
C2354      C2355   1.544       .  S
C2354      C2360   1.531       .  S
C2354      C2358   1.544       .  S
C2354      C2412   1.465       .  S
C2355      H2362   1.086       .  S
C2355      C2356   1.368       .  D
C2356      C2357   1.541       .  S
C2357      C2361   1.544       .  S
C2357      C2359   1.547       .  S
C2357      H2363   1.112       .  S
C2358      H2364   1.086       .  S
C2358      C2359   1.367       .  D
C2360      H2365   1.087       .  S
C2360      C2361   1.356       .  D
C2361      C2386   1.481       .  S
N2366      C2716   1.346   1_554  A
N2366      C2370   1.346       .  A
N2366      H2398   1.041       .  S
N2367      C2375   1.347       .  A
N2368      C2718   1.350   1_554  A
N2368      C2372   1.350       .  A
N2368      H2399   1.034       .  S
N2369      C2377   1.347       .  A
C2370      C2378   1.380       .  A
C2370      C2386   1.393       .  A
C2371      N2711   1.346       .  A
C2371      C2387   1.393       .  A
C2371      C2379   1.380       .  A
C2372      C2380   1.381       .  A
C2372      C2389   1.408       .  A
C2373      N2713   1.350       .  A
C2373      C2388   1.408       .  A
C2373      C2381   1.381       .  A
C2374      C2386   1.401       .  A
C2374      C2382   1.378       .  A
C2375      C2389   1.405       .  A
C2375      C2383   1.379       .  A
C2376      C2384   1.378       .  A
C2376      C2387   1.401       .  A
C2377      C2385   1.379       .  A
C2377      C2388   1.405       .  A
C2378      C2724   1.374   1_554  A
C2378      H2390   1.082       .  S
C2379      C2723   1.374       .  A
C2379      H2391   1.082       .  S
C2380      C2726   1.380   1_554  A
C2380      H2392   1.081       .  S
C2381      C2725   1.380       .  A
C2381      H2393   1.081       .  S
C2382      H2394   1.081       .  S
C2383      H2395   1.081       .  S
C2384      H2396   1.081       .  S
C2385      H2397   1.081       .  S
C2400      C2401   1.205       .  T
C2402      C2403   1.205       .  T
C2404      C2405   1.200       .  T
C2406      C2407   1.205       .  T
C2408      C2409   1.212       .  T
C2410      C2411   1.200       .  T
C2412      C2413   1.205       .  T
C2414      C2415   1.212       .  T
O2416      C2424   1.269       .  A
O2416     Co2436   2.013       .  S
O2417      C2425   1.242       .  A
O2417     Co2437   1.962       .  S
O2418      C2426   1.257       .  A
O2418     Co2438   1.960       .  S
O2419      C2427   1.252       .  A
O2419     Co2439   2.000       .  S
O2420      C2426   1.269       .  A
O2420     Co2437   2.013       .  S
O2421      C2427   1.242       .  A
O2421     Co2436   1.962       .  S
O2422      C2425   1.252       .  A
O2422     Co2439   2.000       .  S
O2423      C2424   1.257       .  A
O2423     Co2438   1.960       .  S
C2424      C2756   1.423       .  S
C2425      C2746   1.433       .  S
C2426      C2749   1.423       .  S
C2427      C2752   1.433       .  S
O2428      C2441   1.272       .  A
O2428     Co2436   1.905       .  S
O2429      C2442   1.260       .  A
O2429     Co2437   1.986       .  S
O2430      C2443   1.265       .  A
O2430     Co2438   2.015       .  S
O2431      C2444   1.292       .  A
O2431     Co2439   2.054       .  S
O2432      C2444   1.272       .  A
O2432     Co2437   1.905       .  S
O2433      C2443   1.260       .  A
O2433     Co2436   1.986       .  S
O2434      C2441   1.292       .  A
O2434     Co2439   2.054       .  S
O2435      C2442   1.265       .  A
O2435     Co2438   2.015       .  S
Co2436     O2440   1.944       .  S
Co2437     O2440   1.944       .  S
Co2438     O2440   2.080       .  S
Co2439     O2440   2.252       .  S
C2441      C2758   1.433       .  S
C2442      C2753   1.443       .  S
C2443      C2759   1.443       .  S
C2444      C2748   1.433       .  S
C2445      C2446   1.536       .  S
C2445      C2451   1.540       .  S
C2445      C2449   1.544       .  S
C2445      C2745   1.466       .  S
C2446      H2453   1.086       .  S
C2446      C2447   1.360       .  D
C2447      C2448   1.548       .  S
C2447      C2513   1.491       .  S
C2448      C2452   1.542       .  S
C2448      C2450   1.544       .  S
C2448      H2454   1.112       .  S
C2449      H2455   1.086       .  S
C2449      C2450   1.366       .  D
C2450      C2574   1.495       .  S
C2451      H2456   1.086       .  S
C2451      C2452   1.364       .  D
C2452      C2733   1.487       .  S
C2457      C2458   1.531       .  S
C2457      C2463   1.544       .  S
C2457      C2461   1.544       .  S
C2457      C2747   1.465       .  S
C2458      H2465   1.087       .  S
C2458      C2459   1.356       .  D
C2459      C2460   1.544       .  S
C2459      C2732   1.481       .  S
C2460      C2464   1.541       .  S
C2460      C2462   1.547       .  S
C2460      H2466   1.112       .  S
C2461      H2467   1.086       .  S
C2461      C2462   1.367       .  D
C2462      C2688   1.502       .  S
C2463      H2468   1.086       .  S
C2463      C2464   1.368       .  D
C2464      C2516   1.490       .  S
C2469      C2470   1.531       .  S
C2469      C2475   1.545       .  S
C2469      C2473   1.535       .  S
C2469      C2750   1.457       .  S
C2470      H2477   1.087       .  S
C2470      C2471   1.358       .  D
C2471      C2472   1.544       .  S
C2471      C2651   1.482       .  S
C2472      C2476   1.542       .  S
C2472      C2474   1.545       .  S
C2472      H2478   1.112       .  S
C2473      H2479   1.086       .  S
C2473      C2474   1.360       .  D
C2474      C2571   1.489       .  S
C2475      H2480   1.086       .  S
C2475      C2476   1.368       .  D
C2476      C2514   1.491       .  S
C2481      C2482   1.532       .  S
C2481      C2487   1.542       .  S
C2481      C2485   1.552       .  S
C2481      C2754   1.478       .  S
C2482      H2489   1.087       .  S
C2482      C2483   1.358       .  D
C2483      C2484   1.546       .  S
C2483      C2515   1.488       .  S
C2484      C2488   1.545       .  S
C2484      C2486   1.544       .  S
C2484      H2490   1.111       .  S
C2485      H2491   1.086       .  S
C2485      C2486   1.373       .  D
C2486      C2687   1.507       .  S
C2487      H2492   1.086       .  S
C2487      C2488   1.366       .  D
C2488      C2654   1.492       .  S
N2493      C2498   1.350       .  A
N2493      H2525   1.040       .  S
N2494      C2502   1.350       .  A
N2495      C2500   1.348       .  A
N2495      H2526   1.036       .  S
N2496      C2504   1.349       .  A
C2497      C2505   1.382       .  A
C2497      C2513   1.401       .  A
C2498      C2514   1.401       .  A
C2498      C2506   1.380       .  A
C2499      C2507   1.380       .  A
C2499      C2516   1.403       .  A
C2500      C2515   1.404       .  A
C2500      C2508   1.381       .  A
C2501      C2513   1.406       .  A
C2501      C2509   1.378       .  A
C2502      C2516   1.408       .  A
C2502      C2510   1.378       .  A
C2503      C2511   1.377       .  A
C2503      C2514   1.404       .  A
C2504      C2512   1.379       .  A
C2504      C2515   1.408       .  A
C2505      H2517   1.082       .  S
C2506      H2518   1.082       .  S
C2507      H2519   1.082       .  S
C2508      H2520   1.081       .  S
C2509      H2521   1.081       .  S
C2510      H2522   1.081       .  S
C2511      H2523   1.081       .  S
C2512      H2524   1.080       .  S
C2527      C2528   1.540       .  S
C2527      C2533   1.536       .  S
C2527      C2531   1.544       .  S
C2527      C2751   1.466       .  S
C2528      H2535   1.086       .  S
C2528      C2529   1.364       .  D
C2529      C2530   1.542       .  S
C2529      C2734   1.487       .  S
C2530      C2534   1.547       .  S
C2530      C2532   1.544       .  S
C2530      H2536   1.112       .  S
C2531      H2537   1.086       .  S
C2531      C2532   1.366       .  D
C2532      C2573   1.495       .  S
C2533      H2538   1.086       .  S
C2533      C2534   1.360       .  D
C2534      C2617   1.491       .  S
C2539      C2540   1.545       .  S
C2539      C2545   1.531       .  S
C2539      C2543   1.535       .  S
C2539      C2755   1.457       .  S
C2540      H2547   1.086       .  S
C2540      C2541   1.368       .  D
C2541      C2542   1.542       .  S
C2541      C2618   1.491       .  S
C2542      C2546   1.544       .  S
C2542      C2544   1.545       .  S
C2542      H2548   1.112       .  S
C2543      H2549   1.086       .  S
C2543      C2544   1.360       .  D
C2544      C2572   1.489       .  S
C2545      H2550   1.087       .  S
C2545      C2546   1.358       .  D
C2546      C2652   1.482       .  S
N2551      C2556   1.348       .  A
N2551      H2583   1.040       .  S
N2552      C2559   1.351       .  A
N2553      C2558   1.353       .  A
N2553      H2584   1.039       .  S
N2554      C2561   1.351       .  A
C2555      C2563   1.382       .  A
C2555      C2571   1.401       .  A
C2556      C2572   1.401       .  A
C2556      C2564   1.382       .  A
C2557      C2565   1.382       .  A
C2557      C2574   1.411       .  A
C2558      C2573   1.411       .  A
C2558      C2566   1.382       .  A
C2559      C2571   1.405       .  A
C2559      C2567   1.377       .  A
C2560      C2574   1.406       .  A
C2560      C2568   1.379       .  A
C2561      C2569   1.377       .  A
C2561      C2572   1.405       .  A
C2562      C2570   1.379       .  A
C2562      C2573   1.406       .  A
C2563      H2575   1.082       .  S
C2564      H2576   1.082       .  S
C2565      H2577   1.082       .  S
C2566      H2578   1.082       .  S
C2567      H2579   1.080       .  S
C2568      H2580   1.080       .  S
C2569      H2581   1.080       .  S
C2570      H2582   1.080       .  S
C2585      C2586   1.542       .  S
C2585      C2591   1.532       .  S
C2585      C2589   1.552       .  S
C2585      C2760   1.478       .  S
C2586      H2593   1.086       .  S
C2586      C2587   1.366       .  D
C2587      C2588   1.545       .  S
C2587      C2653   1.492       .  S
C2588      C2592   1.546       .  S
C2588      C2590   1.544       .  S
C2588      H2594   1.111       .  S
C2589      H2595   1.086       .  S
C2589      C2590   1.373       .  D
C2590      C2686   1.506       .  S
C2591      H2596   1.087       .  S
C2591      C2592   1.358       .  D
C2592      C2619   1.488       .  S
N2597      C2602   1.350       .  A
N2597      H2629   1.040       .  S
N2598      C2606   1.350       .  A
N2599      C2604   1.348       .  A
N2599      H2630   1.036       .  S
N2600      C2608   1.349       .  A
C2601      C2609   1.382       .  A
C2601      C2617   1.401       .  A
C2602      C2618   1.401       .  A
C2602      C2610   1.380       .  A
C2603      C2611   1.380       .  A
C2603      C2620   1.403       .  A
C2604      C2619   1.404       .  A
C2604      C2612   1.381       .  A
C2605      C2617   1.406       .  A
C2605      C2613   1.378       .  A
C2606      C2620   1.408       .  A
C2606      C2614   1.378       .  A
C2607      C2615   1.377       .  A
C2607      C2618   1.404       .  A
C2608      C2616   1.379       .  A
C2608      C2619   1.407       .  A
C2609      H2621   1.082       .  S
C2610      H2622   1.082       .  S
C2611      H2623   1.082       .  S
C2612      H2624   1.081       .  S
C2613      H2625   1.081       .  S
C2614      H2626   1.081       .  S
C2615      H2627   1.081       .  S
C2616      H2628   1.080       .  S
C2620      C2701   1.490       .  S
N2631      C2636   1.347       .  A
N2631      H2663   1.038       .  S
N2632      C2640   1.348       .  A
N2633      C2638   1.350       .  A
N2633      H2664   1.039       .  S
N2634      C2642   1.348       .  A
C2635      C2643   1.380       .  A
C2635      C2651   1.398       .  A
C2636      C2652   1.398       .  A
C2636      C2644   1.380       .  A
C2637      C2645   1.381       .  A
C2637      C2654   1.405       .  A
C2638      C2653   1.405       .  A
C2638      C2646   1.381       .  A
C2639      C2651   1.404       .  A
C2639      C2647   1.378       .  A
C2640      C2654   1.403       .  A
C2640      C2648   1.378       .  A
C2641      C2649   1.378       .  A
C2641      C2652   1.404       .  A
C2642      C2650   1.378       .  A
C2642      C2653   1.403       .  A
C2643      H2655   1.081       .  S
C2644      H2656   1.081       .  S
C2645      H2657   1.082       .  S
C2646      H2658   1.082       .  S
C2647      H2659   1.080       .  S
C2648      H2660   1.081       .  S
C2649      H2661   1.080       .  S
C2650      H2662   1.081       .  S
N2665      C2670   1.354       .  A
N2665      H2697   1.038       .  S
N2666      C2673   1.352       .  A
N2667      C2672   1.354       .  A
N2667      H2698   1.038       .  S
N2668      C2675   1.355       .  A
C2669      C2677   1.381       .  A
C2669      C2685   1.412       .  A
C2670      C2686   1.413       .  A
C2670      C2678   1.382       .  A
C2671      C2679   1.381       .  A
C2671      C2688   1.412       .  A
C2672      C2687   1.413       .  A
C2672      C2680   1.382       .  A
C2673      C2685   1.410       .  A
C2673      C2681   1.378       .  A
C2674      C2688   1.410       .  A
C2674      C2682   1.378       .  A
C2675      C2683   1.378       .  A
C2675      C2686   1.416       .  A
C2676      C2684   1.378       .  A
C2676      C2687   1.416       .  A
C2677      H2689   1.082       .  S
C2678      H2690   1.082       .  S
C2679      H2691   1.082       .  S
C2680      H2692   1.082       .  S
C2681      H2693   1.080       .  S
C2682      H2694   1.080       .  S
C2683      H2695   1.080       .  S
C2684      H2696   1.080       .  S
C2685      C2704   1.502       .  S
C2699      C2700   1.544       .  S
C2699      C2705   1.531       .  S
C2699      C2703   1.544       .  S
C2699      C2757   1.465       .  S
C2700      H2707   1.086       .  S
C2700      C2701   1.368       .  D
C2701      C2702   1.541       .  S
C2702      C2706   1.544       .  S
C2702      C2704   1.547       .  S
C2702      H2708   1.112       .  S
C2703      H2709   1.086       .  S
C2703      C2704   1.367       .  D
C2705      H2710   1.087       .  S
C2705      C2706   1.356       .  D
C2706      C2731   1.481       .  S
N2711      C2715   1.346       .  A
N2711      H2743   1.041       .  S
N2712      C2720   1.347       .  A
N2713      C2717   1.350       .  A
N2713      H2744   1.034       .  S
N2714      C2722   1.347       .  A
C2715      C2723   1.380       .  A
C2715      C2731   1.393       .  A
C2716      C2732   1.393       .  A
C2716      C2724   1.380       .  A
C2717      C2725   1.381       .  A
C2717      C2734   1.408       .  A
C2718      C2733   1.408       .  A
C2718      C2726   1.381       .  A
C2719      C2731   1.401       .  A
C2719      C2727   1.378       .  A
C2720      C2734   1.405       .  A
C2720      C2728   1.379       .  A
C2721      C2729   1.378       .  A
C2721      C2732   1.401       .  A
C2722      C2730   1.379       .  A
C2722      C2733   1.405       .  A
C2723      H2735   1.082       .  S
C2724      H2736   1.082       .  S
C2725      H2737   1.081       .  S
C2726      H2738   1.081       .  S
C2727      H2739   1.081       .  S
C2728      H2740   1.081       .  S
C2729      H2741   1.081       .  S
C2730      H2742   1.081       .  S
C2745      C2746   1.205       .  T
C2747      C2748   1.205       .  T
C2749      C2750   1.200       .  T
C2751      C2752   1.205       .  T
C2753      C2754   1.212       .  T
C2755      C2756   1.200       .  T
C2757      C2758   1.205       .  T
C2759      C2760   1.212       .  T
