geometry optimzed in LAMMPS
_audit_creation_date              2020-12-01 
_audit_creation_method            'lammps2cif' 
_symmetry_space_group_name_H-M    'P1' 
_symmetry_Int_Tables_number       1 
_symmetry_cell_setting            triclinic 
loop_ 
_symmetry_equiv_pos_as_xyz 
  x,y,z 
_cell_length_a                    45.40455334 
_cell_length_b                    52.665404704336986 
_cell_length_c                    21.793889334842905 
_cell_angle_alpha                 92.43843284696716 
_cell_angle_beta                  90.59052115001658 
_cell_angle_gamma                 90.00235102908886 
loop_ 
_atom_site_label 
_atom_site_type_symbol 
_atom_site_fract_x 
_atom_site_fract_y 
_atom_site_fract_z 
_atom_site_charge 
O1          O  0.29164731  0.41457747  0.31688759    -0.56800
C2          C  0.35963936  0.46247149  0.25453708     0.74600
O3          O  0.36077696  0.37712153  0.33595730    -0.58000
C4          C  0.27641830  0.40747681  0.27045054     0.75800
C5          C  0.37343270  0.38676983  0.16894825     0.78200
Cd6        Cd  0.34151943  0.41060440  0.27006607     1.37500
O7          O  0.37256803  0.44309547  0.23214885    -0.56800
O8          O  0.36359345  0.40921704  0.16765899    -0.55600
C9          C  0.37487980  0.39186112  0.37297918     0.78100
O10         O  0.36540875  0.37380234  0.21354726    -0.58000
O11         O  0.33724638  0.45851979  0.28689972    -0.56400
O12         O  0.29091440  0.40060559  0.22319920    -0.56400
O13         O  0.37184646  0.41539678  0.36567976    -0.55600
O14         O  0.48184809  0.36487836  0.06956319    -0.56800
C15         C  0.40955453  0.30780834  0.50465598     0.75800
O16         O  0.40661507  0.39180318  0.08630380    -0.58000
C17         C  0.49628676  0.36341020  0.02019409     0.75800
C18         C  0.39368804  0.38198177  0.42187595     0.78200
Cd19       Cd  0.43116016  0.35893845  0.02145850     1.37500
O20         O  0.43254014  0.31344432  0.53571413    -0.56800
O21         O  0.39985675  0.35859247  0.42297894    -0.55600
C22         C  0.39388551  0.37694429  0.12163543     0.78100
O23         O  0.40434834  0.39618567  0.46500664    -0.58000
O24         O  0.39494725  0.32605780  0.48452474    -0.56400
O25         O  0.48097483  0.36145484  0.97145569    -0.56400
O26         O  0.40009338  0.35359895  0.11446746    -0.55600
C27         C  0.41247604  0.01176167  0.20243505     0.81200
N28         N  0.39893440  0.03374277  0.21891323    -0.77100
C29         C  0.37172872  0.03393449  0.24376172     0.83700
N30         N  0.35768508  0.01154257  0.25301983    -0.77000
C31         C  0.37104331  0.48770124  0.24146207     0.83800
N32         N  0.39709595  0.48848184  0.21170439    -0.78700
C33         C  0.36094286  0.25869065  0.95722745     0.81200
N34         N  0.37271962  0.23720486  0.97835319    -0.77100
C35         C  0.39931281  0.23741111  0.00714639     0.83700
N36         N  0.41441009  0.25970641  0.01579396    -0.77000
C37         C  0.40247863  0.28142185  0.99406915     0.83800
N38         N  0.37589295  0.28071868  0.96503614    -0.78700
O39         O  0.39370796  0.19391210  0.02252989    -0.56800
C40         C  0.49296620  0.15407362  0.04222743     0.75800
O41         O  0.39987864  0.12904890  0.09684850    -0.58000
C42         C  0.41068559  0.21283164  0.02554869     0.75800
C43         C  0.39455165  0.13976403  0.44390915     0.78200
Cd44       Cd  0.42808778  0.16099631  0.04200599     1.37500
O45         O  0.47870337  0.15930786  0.09077412    -0.56800
O46         O  0.39179372  0.16268303  0.46231132    -0.55600
C47         C  0.39273491  0.14329609  0.14240828     0.78100
O48         O  0.41489476  0.12714364  0.46906450    -0.58000
O49         O  0.47750140  0.15053535  0.99394616    -0.56400
O50         O  0.43710676  0.20871123  0.04130410    -0.56400
O51         O  0.40409795  0.16527905  0.14527235    -0.55600
O52         O  0.29126498  0.10571469  0.33323536    -0.56800
C53         C  0.35911349  0.05891557  0.25988555     0.75800
O54         O  0.37059774  0.14536589  0.24218387    -0.58000
C55         C  0.27665923  0.11607813  0.29134436     0.75800
C56         C  0.37530096  0.12904827  0.39459534     0.78200
Cd57       Cd  0.34154492  0.11073548  0.28782103     1.37500
O58         O  0.33613226  0.06260005  0.29147571    -0.56800
O59         O  0.37696511  0.10613351  0.37529692    -0.55600
C60         C  0.37276732  0.13424678  0.18976102     0.78100
O61         O  0.35646371  0.14269212  0.36827549    -0.58000
O62         O  0.37214275  0.07842005  0.24260270    -0.56400
O63         O  0.29174219  0.12496898  0.24860903    -0.56400
O64         O  0.35745328  0.11432775  0.18045819    -0.55600
O65         O  0.22983702  0.41544987  0.31931582    -0.56800
C66         C  0.15614607  0.46268713  0.25571329     0.75800
O67         O  0.15661282  0.37453073  0.21803265    -0.58000
C68         C  0.24366311  0.40802705  0.27174854     0.75800
C69         C  0.14485712  0.39373167  0.37714067     0.78200
Cd70       Cd  0.17844568  0.41218442  0.27512923     1.37500
O71         O  0.14425018  0.44239783  0.23540977    -0.56800
O72         O  0.15027732  0.41717486  0.37359475    -0.55600
C73         C  0.14841811  0.38723842  0.17274323     0.78100
O74         O  0.15717448  0.37904050  0.33786050    -0.58000
O75         O  0.17959868  0.46039878  0.28707970    -0.56400
O76         O  0.22777011  0.40181480  0.22552327    -0.56400
O77         O  0.15706229  0.41006128  0.17224092    -0.55600
O78         O  0.10551767  0.32253907  0.95818142    -0.56800
C79         C  0.02614806  0.36392756  0.02578064     0.75800
O80         O  0.11872136  0.39099785  0.08326863    -0.58000
C81         C  0.10546878  0.30609049  0.99858341     0.75800
C82         C  0.12521047  0.38367218  0.42376085     0.78200
Cd83       Cd  0.09124705  0.35835279  0.02323053     1.37500
O84         O  0.04147375  0.36325619  0.07445118    -0.56800
O85         O  0.11954769  0.36018617  0.42399084    -0.55600
C86         C  0.12881472  0.37684467  0.12385872     0.78100
O87         O  0.11309203  0.39761545  0.46515813    -0.58000
O88         O  0.04118721  0.36197723  0.46782728    -0.56400
O89         O  0.09574675  0.31287954  0.05102954    -0.56400
O90         O  0.12039712  0.35391073  0.12078492    -0.55600
C91         C  0.16153636  0.26035086  0.94736055     0.81200
N92         N  0.14607665  0.28202567  0.95704454    -0.77100
C93         C  0.11975588  0.28169216  0.98595986     0.83700
N94         N  0.10874394  0.25943525  0.00578353    -0.77000
C95         C  0.12414193  0.23753263  0.99478684     0.83800
N96         N  0.15043553  0.23823624  0.96606556    -0.78700
O97         O  0.08265439  0.21002963  0.52583815    -0.56800
C98         C  0.02956131  0.15811735  0.03843233     0.75800
O99         O  0.11292836  0.12692633  0.47724358    -0.58000
C100        C  0.11008474  0.21431989  0.52605408     0.75800
C101        C  0.12975422  0.14337490  0.13452135     0.78200
Cd102      Cd  0.09450708  0.16167393  0.03348330     1.37500
O103        O  0.04495544  0.16629151  0.08377289    -0.56800
O104        O  0.12105161  0.16617132  0.13429847    -0.55600
C105        C  0.12107542  0.14031137  0.43362150     0.78100
O106        O  0.12060029  0.12880556  0.09089011    -0.58000
O107        O  0.04386239  0.15049534  0.99160347    -0.56400
O108        O  0.12675005  0.19570776  0.53548027    -0.56400
O109        O  0.11172359  0.16294197  0.43436769    -0.55600
O110        O  0.22906681  0.10792086  0.33442084    -0.56800
C111        C  0.15998888  0.06001868  0.25799609     0.75800
O112        O  0.15348437  0.14522973  0.34921843    -0.58000
C113        C  0.24386434  0.11652408  0.29108895     0.75800
C114        C  0.14887201  0.13393211  0.18342601     0.78200
Cd115      Cd  0.17860045  0.11171593  0.28553562     1.37500
O116        O  0.18015219  0.06386936  0.29791027    -0.56800
O117        O  0.15943914  0.11167157  0.17971040    -0.55600
C118        C  0.14121121  0.13053575  0.38555027     0.78100
O119        O  0.15495917  0.14720791  0.23181190    -0.58000
O120        O  0.15029229  0.07927195  0.23209948    -0.56400
O121        O  0.22887731  0.12440769  0.24650075    -0.56400
O122        O  0.14781902  0.10726035  0.37915646    -0.55600
C123        C  0.10645352  0.01315461  0.19640064     0.81200
N124        N  0.11632740  0.48660514  0.21105773    -0.77100
C125        C  0.14260725  0.48709511  0.24161231     0.83700
N126        N  0.15952609  0.01270886  0.25671034    -0.77000
C127        C  0.14670628  0.03517979  0.24225569     0.83800
N128        N  0.12033126  0.03515567  0.21226294    -0.78700
C129        C  0.28918353  0.26446151  0.40521942     0.30800
C130        C  0.26389992  0.27962105  0.40174778    -0.35600
C131        C  0.23722358  0.26767698  0.41430748     0.16800
C132        C  0.23552539  0.24233323  0.42779713     0.22600
C133        C  0.25967501  0.23252028  0.91270165    -0.33700
C134        C  0.28737396  0.23897468  0.41741732     0.16700
O135        O  0.31640254  0.27301586  0.40855571    -0.25700
C136        C  0.33089316  0.25851848  0.93251290     0.06500
C137        C  0.31399281  0.23661540  0.92544008    -0.30600
O138        O  0.20754467  0.23966653  0.92033604    -0.22400
C139        C  0.19171620  0.26082253  0.92477188    -0.02400
C140        C  0.21003997  0.27775415  0.42494993    -0.16800
H141        H  0.26525513  0.29993441  0.39559179     0.21100
H142        H  0.25838448  0.21209103  0.91691896     0.19500
H143        H  0.32047627  0.21719579  0.93318550     0.19500
H144        H  0.20332344  0.29744074  0.42259187     0.15300
C145        C  0.48529469  0.00018287  0.15829009     0.30800
C146        C  0.00671583  0.98748174  0.13362131    -0.35600
C147        C  0.03342064  0.00068570  0.13969038     0.16800
C148        C  0.03492027  0.02684154  0.14710261     0.22600
C149        C  0.00934820  0.04177096  0.14721970    -0.33700
C150        C  0.48677949  0.02639266  0.16314261     0.16700
O151        O  0.45869711  0.99146798  0.16906561    -0.25700
C152        C  0.44292655  0.01235661  0.18055471     0.06500
C153        C  0.45921956  0.03462182  0.17709476    -0.30600
O154        O  0.06140154  0.03481500  0.16426176    -0.22400
C155        C  0.07699351  0.01353412  0.16795069    -0.02400
C156        C  0.06083602  0.99177835  0.15219284    -0.16800
H157        H  0.00581484  0.96687375  0.13338818     0.21100
H158        H  0.01015593  0.06213566  0.15715226     0.19500
H159        H  0.45225017  0.05397544  0.18790300     0.19500
H160        H  0.06749584  0.97213352  0.15592053     0.15300
O161        O  0.29045904  0.41695464  0.82783406    -0.56800
C162        C  0.35771116  0.46412831  0.75957656     0.74600
O163        O  0.36219104  0.37904923  0.84367611    -0.58000
C164        C  0.27564564  0.40740545  0.78314373     0.75800
C165        C  0.37023180  0.38907083  0.67570341     0.78200
Cd166      Cd  0.34065043  0.41238566  0.78081364     1.37500
O167        O  0.36999651  0.44438466  0.73752137    -0.56800
O168        O  0.36137431  0.41184819  0.67695994    -0.55600
C169        C  0.37673655  0.39343383  0.88062625     0.78100
O170        O  0.36250015  0.37578772  0.71996277    -0.58000
O171        O  0.33610735  0.46077732  0.79466816    -0.56400
O172        O  0.29053120  0.39919282  0.73767688    -0.56400
O173        O  0.37310113  0.41704893  0.87530389    -0.55600
O174        O  0.47545988  0.36580348  0.57376377    -0.56800
C175        C  0.41626843  0.30634170  0.00326417     0.75800
O176        O  0.39896974  0.39355280  0.58586355    -0.58000
C177        C  0.49000064  0.36741025  0.52483888     0.75800
C178        C  0.39666892  0.38278100  0.92679324     0.78200
Cd179      Cd  0.42496553  0.36056483  0.52374146     1.37500
O180        O  0.42950037  0.31354908  0.05242823    -0.56800
O181        O  0.40059873  0.35906109  0.92812554    -0.55600
C182        C  0.38934374  0.37917035  0.62607281     0.78100
O183        O  0.41063516  0.39636912  0.96680013    -0.58000
O184        O  0.41262476  0.32266486  0.96312266    -0.56400
O185        O  0.47478880  0.36719361  0.47582532    -0.56400
O186        O  0.39765695  0.35625137  0.62193628    -0.55600
C187        C  0.40936318  0.01307842  0.68908645     0.81200
N188        N  0.39588523  0.03503931  0.70581267    -0.77100
C189        C  0.37052742  0.03516961  0.73801778     0.83700
N190        N  0.35821512  0.01275517  0.75392741    -0.77000
C191        C  0.36940473  0.48892838  0.74333638     0.83800
N192        N  0.39519125  0.48854218  0.71265010    -0.78700
C193        C  0.36242764  0.25539248  0.44637876     0.81200
N194        N  0.37800751  0.23476414  0.46208730    -0.77100
C195        C  0.40413558  0.23743885  0.49244103     0.83700
N196        N  0.41479150  0.26103746  0.50814386    -0.77000
C197        C  0.39932463  0.28181142  0.49110972     0.83800
N198        N  0.37323803  0.27879086  0.46075560    -0.78700
O199        O  0.42366201  0.19677201  0.47068567    -0.56800
C200        C  0.49566299  0.15874373  0.54793320     0.75800
O201        O  0.40460815  0.13067873  0.59894645    -0.58000
C202        C  0.41863922  0.21426443  0.51061312     0.75800
C203        C  0.39716803  0.13922852  0.93607505     0.78200
Cd204      Cd  0.43038943  0.16320697  0.54140154     1.37500
O205        O  0.48042996  0.16601968  0.59368723    -0.56800
O206        O  0.40586705  0.16206828  0.93897631    -0.55600
C207        C  0.39268414  0.14549823  0.63855043     0.78100
O208        O  0.40581744  0.12529623  0.97874624    -0.58000
O209        O  0.48108269  0.15188615  0.50027577    -0.56400
O210        O  0.42262902  0.20921636  0.56641503    -0.56400
O211        O  0.39978796  0.16870603  0.63708136    -0.55600
O212        O  0.29057889  0.11185944  0.83014304    -0.56800
C213        C  0.35832973  0.06015763  0.75536007     0.75800
O214        O  0.36205417  0.14927781  0.72859313    -0.58000
C215        C  0.27575277  0.11576333  0.78201910     0.75800
C216        C  0.37734182  0.12985179  0.88624188     0.78200
Cd217      Cd  0.34099659  0.11203425  0.78222378     1.37500
O218        O  0.33707730  0.06401985  0.79171889    -0.56800
O219        O  0.36972064  0.10679175  0.87973752    -0.55600
C220        C  0.37237547  0.13564684  0.68440884     0.78100
O221        O  0.36648563  0.14475707  0.84809667    -0.58000
O222        O  0.36998028  0.07952214  0.73389912    -0.56400
O223        O  0.29070394  0.11951279  0.73455207    -0.56400
O224        O  0.36506874  0.11244961  0.68216125    -0.55600
O225        O  0.22832853  0.41504997  0.82949315    -0.56800
C226        C  0.16166435  0.46367427  0.76853734     0.75800
O227        O  0.15335394  0.37630582  0.71898946    -0.58000
C228        C  0.24287747  0.40696975  0.78339142     0.75800
C229        C  0.14528579  0.39213752  0.88274480     0.78200
Cd230      Cd  0.17801356  0.41148550  0.78064858     1.37500
O231        O  0.14366363  0.44569994  0.77416552    -0.56800
O232        O  0.14875948  0.41577369  0.87753764    -0.55600
C233        C  0.14647456  0.38960756  0.67402875     0.78100
O234        O  0.15921858  0.37775829  0.84518225    -0.58000
O235        O  0.18872623  0.45832567  0.77315777    -0.56400
O236        O  0.22772225  0.39945564  0.73697548    -0.56400
O237        O  0.15661569  0.41198572  0.67531994    -0.55600
O238        O  0.11516881  0.32489204  0.46854597    -0.56800
C239        C  0.02616875  0.36619813  0.51572630     0.75800
O240        O  0.11781166  0.39424087  0.58250024    -0.58000
C241        C  0.10849688  0.30807933  0.50547279     0.75800
C242        C  0.12588931  0.38155841  0.92917141     0.78200
Cd243      Cd  0.09147566  0.36088075  0.51962085     1.37500
O244        O  0.04094975  0.36938245  0.56492896    -0.56800
O245        O  0.12384633  0.35781500  0.93406430    -0.55600
C246        C  0.12720437  0.37989684  0.62344890     0.78100
O247        O  0.11022990  0.39527196  0.96540030    -0.58000
O248        O  0.04057849  0.36350854  0.97643553    -0.56400
O249        O  0.09169080  0.31486597  0.54923899    -0.56400
O250        O  0.11871862  0.35700201  0.61902749    -0.55600
C251        C  0.16386192  0.25906541  0.46892425     0.81200
N252        N  0.14950482  0.28152539  0.47434268    -0.77100
C253        C  0.12210259  0.28286437  0.49882549     0.83700
N254        N  0.10862432  0.26130069  0.51714356    -0.77000
C255        C  0.12317761  0.23866152  0.51110552     0.83800
N256        N  0.15069932  0.23786636  0.48774464    -0.78700
O257        O  0.08846478  0.20927624  0.03634861    -0.56800
C258        C  0.02558908  0.15913583  0.54409863     0.75800
O259        O  0.11253801  0.12456847  0.96973679    -0.58000
C260        C  0.11324761  0.21271236  0.01201477     0.75800
C261        C  0.12305214  0.14301171  0.63924335     0.78200
Cd262      Cd  0.09021287  0.16293403  0.53815504     1.37500
O263        O  0.04107230  0.16690465  0.58975291    -0.56800
O264        O  0.11753098  0.16652568  0.63781391    -0.55600
C265        C  0.12218362  0.13808367  0.92751169     0.78100
O266        O  0.11079223  0.12877265  0.59833680    -0.58000
O267        O  0.03971571  0.15188491  0.49668801    -0.56400
O268        O  0.12869837  0.19320037  0.00104756    -0.56400
O269        O  0.11561042  0.16143270  0.93071567    -0.55600
O270        O  0.22823576  0.11106744  0.82860958    -0.56800
C271        C  0.16140015  0.05709332  0.75331751     0.75800
O272        O  0.15299465  0.14231691  0.84090123    -0.58000
C273        C  0.24296806  0.11489560  0.78098621     0.75800
C274        C  0.14296548  0.13244836  0.68512530     0.78200
Cd275      Cd  0.17783023  0.10903312  0.77839885     1.37500
O276        O  0.17354539  0.06317114  0.80446643    -0.56800
O277        O  0.14821354  0.10887759  0.68434913    -0.55600
C278        C  0.14125456  0.12781511  0.87840318     0.78100
O279        O  0.15592501  0.14609540  0.72651567    -0.58000
O280        O  0.15962943  0.07410279  0.71444139    -0.56400
O281        O  0.22797319  0.11698798  0.73222240    -0.56400
O282        O  0.14768165  0.10447154  0.87250459    -0.55600
C283        C  0.10637908  0.01074837  0.69646090     0.81200
N284        N  0.12403257  0.48854861  0.72267910    -0.77100
C285        C  0.15052629  0.48846061  0.75156080     0.83700
N286        N  0.15956295  0.01016275  0.75599928    -0.77000
C287        C  0.14723064  0.03258220  0.73991474     0.83800
N288        N  0.12076363  0.03272167  0.71026848    -0.78700
C289        C  0.28855472  0.27161303  0.91423366     0.30800
C290        C  0.26325929  0.28684661  0.91158913    -0.35600
C291        C  0.23627325  0.27388076  0.91080800     0.16800
C292        C  0.23448046  0.24770838  0.91177168     0.22600
C293        C  0.26063120  0.22691447  0.42868610    -0.33700
C294        C  0.28651559  0.24544202  0.91429906     0.16700
O295        O  0.31560853  0.27975078  0.92530627    -0.25700
C296        C  0.33222695  0.25281016  0.42268762     0.06500
C297        C  0.31540131  0.23095551  0.42757642    -0.30600
O298        O  0.20922899  0.23592619  0.44654666    -0.22400
C299        C  0.19386853  0.25737617  0.44514326    -0.02400
C300        C  0.20830761  0.28276592  0.91845165    -0.16800
H301        H  0.26449184  0.30744681  0.91485355     0.21100
H302        H  0.25967641  0.20739890  0.44273756     0.19500
H303        H  0.32230319  0.21277615  0.44431864     0.19500
H304        H  0.20130994  0.30236792  0.92491766     0.15300
C305        C  0.48124251  0.00061288  0.64466677     0.30800
C306        C  0.00561847  0.98461044  0.64765932    -0.35600
C307        C  0.03233188  0.99774982  0.64965425     0.16800
C308        C  0.03412030  0.02395948  0.65146601     0.22600
C309        C  0.00861772  0.03899820  0.64975921    -0.33700
C310        C  0.48325260  0.02680475  0.65024351     0.16700
O311        O  0.45419517  0.99238737  0.65204243    -0.25700
C312        C  0.43871864  0.01351618  0.66223202     0.06500
C313        C  0.45550629  0.03552310  0.66010100    -0.30600
O314        O  0.06104112  0.03217676  0.66422577    -0.22400
C315        C  0.07648816  0.01093519  0.67043264    -0.02400
C316        C  0.05982100  0.98901098  0.66091801    -0.16800
H317        H  0.00459011  0.96411142  0.65102298     0.21100
H318        H  0.00960731  0.05959073  0.65458067     0.19500
H319        H  0.44896398  0.05483811  0.67258746     0.19500
H320        H  0.06636737  0.96952853  0.66776499     0.15300
O321        O  0.29082008  0.91589781  0.30734882    -0.56800
C322        C  0.35734832  0.96444872  0.24366225     0.74600
O323        O  0.36160134  0.87794979  0.32370843    -0.58000
C324        C  0.27575304  0.90876561  0.26067961     0.75800
C325        C  0.37368763  0.88900220  0.15907351     0.78200
Cd326      Cd  0.34120771  0.91217341  0.26020681     1.37500
O327        O  0.34596440  0.95829655  0.29377616    -0.56800
O328        O  0.37154692  0.91271694  0.16876707    -0.55600
C329        C  0.37681182  0.89201078  0.36028173     0.78100
O330        O  0.35890564  0.87514736  0.19373622    -0.58000
O331        O  0.35876589  0.94731296  0.20152966    -0.56400
O332        O  0.29049272  0.90229103  0.21361055    -0.56400
O333        O  0.37489655  0.91562657  0.35295544    -0.55600
O334        O  0.47897614  0.85762374  0.05597240    -0.56800
C335        C  0.41076224  0.80520512  0.48980675     0.75800
O336        O  0.40865714  0.89334174  0.07977800    -0.58000
C337        C  0.49362729  0.86650431  0.01285001     0.75800
C338        C  0.39516807  0.88119764  0.40909148     0.78200
Cd339      Cd  0.42868133  0.86084487  0.00812040     1.37500
O340        O  0.42650142  0.81148589  0.53639169    -0.56800
O341        O  0.39642197  0.85746911  0.41491110    -0.55600
C342        C  0.39286492  0.87872273  0.11017308     0.78100
O343        O  0.41002746  0.89475793  0.44772444    -0.58000
O344        O  0.40433764  0.82254029  0.45389589    -0.56400
O345        O  0.47857923  0.87411863  0.96802225    -0.56400
O346        O  0.39475692  0.85522604  0.09636012    -0.55600
C347        C  0.40861635  0.51076114  0.19538998     0.81200
N348        N  0.39385686  0.53249759  0.20834840    -0.77100
C349        C  0.36785731  0.53225475  0.23825762     0.83700
N350        N  0.35629203  0.50976442  0.25583290    -0.77000
C351        C  0.37108735  0.98922800  0.23530860     0.83800
N352        N  0.39840813  0.98948568  0.21018657    -0.78700
C353        C  0.36130340  0.75944631  0.93079286     0.81200
N354        N  0.37255070  0.73834820  0.95529638    -0.77100
C355        C  0.39837232  0.73917049  0.98709280     0.83700
N356        N  0.41307312  0.76165258  0.99555339    -0.77000
C357        C  0.40175804  0.78296609  0.97069350     0.83800
N358        N  0.37595873  0.78169237  0.93865750    -0.78700
O359        O  0.39192494  0.69684820  0.01565857    -0.56800
C360        C  0.49285372  0.66067009  0.03804488     0.75800
O361        O  0.40784281  0.63030570  0.09703692    -0.58000
C362        C  0.40941543  0.71523012  0.01036626     0.75800
C363        C  0.39661597  0.63701944  0.42405936     0.78200
Cd364      Cd  0.42782941  0.66421451  0.03438620     1.37500
O365        O  0.47841570  0.67231170  0.07996456    -0.56800
O366        O  0.40645880  0.65948081  0.42393489    -0.55600
C367        C  0.39431398  0.64449094  0.13555521     0.78100
O368        O  0.40474228  0.62390411  0.46863959    -0.58000
O369        O  0.47757551  0.64950015  0.99610198    -0.56400
O370        O  0.43631559  0.71106703  0.02191088    -0.56400
O371        O  0.39879993  0.66812314  0.13242688    -0.55600
O372        O  0.28822884  0.61591104  0.31956012    -0.56800
C373        C  0.35392906  0.55696723  0.25052081     0.75800
O374        O  0.36066723  0.64706489  0.22090202    -0.58000
C375        C  0.27311315  0.61457001  0.27047712     0.75800
C376        C  0.37615148  0.62732545  0.37536101     0.78200
Cd377      Cd  0.33873069  0.60952676  0.27252436     1.37500
O378        O  0.34094476  0.56327217  0.30005323    -0.56800
O379        O  0.36846409  0.60422815  0.36950188    -0.55600
C380        C  0.37415313  0.63365778  0.18041455     0.78100
O381        O  0.36488022  0.64210437  0.33737758    -0.58000
O382        O  0.35722510  0.57407453  0.21239389    -0.56400
O383        O  0.28790334  0.61247964  0.22163105    -0.56400
O384        O  0.36919385  0.61003074  0.17960306    -0.55600
O385        O  0.22867028  0.91331743  0.31002071    -0.56800
C386        C  0.15785181  0.96534772  0.25290105     0.75800
O387        O  0.15870835  0.87689492  0.19668316    -0.58000
C388        C  0.24293266  0.90891116  0.26113752     0.75800
C389        C  0.14555667  0.89272512  0.36467762     0.78200
Cd390      Cd  0.17771878  0.91334411  0.26306150     1.37500
O391        O  0.14190299  0.94591339  0.24450449    -0.56800
O392        O  0.15429834  0.91555585  0.36698749    -0.55600
C393        C  0.14632079  0.89072430  0.15778709     0.78100
O394        O  0.15400343  0.87908642  0.31911746    -0.58000
O395        O  0.18423935  0.96150642  0.26945996    -0.56400
O396        O  0.22743338  0.90549390  0.21282820    -0.56400
O397        O  0.15121552  0.91433704  0.16378503    -0.55600
O398        O  0.10454308  0.82267238  0.94866133    -0.56800
C399        C  0.02438389  0.86606339  0.00917919     0.75800
O400        O  0.11289090  0.89454230  0.07313359    -0.58000
C401        C  0.10497943  0.80748158  0.99191806     0.75800
C402        C  0.12637795  0.88234599  0.41171954     0.78200
Cd403      Cd  0.08956752  0.86017556  0.00836764     1.37500
O404        O  0.03942493  0.86317262  0.05748000    -0.56800
O405        O  0.11618635  0.86002658  0.40555133    -0.55600
C406        C  0.12658113  0.88024078  0.10890360     0.78100
O407        O  0.11907241  0.89501566  0.45991711    -0.58000
O408        O  0.04248945  0.86459211  0.46099220    -0.56400
O409        O  0.09516891  0.81565894  0.04326836    -0.56400
O410        O  0.12187479  0.85665232  0.10107863    -0.55600
C411        C  0.16227955  0.76097409  0.95057739     0.81200
N412        N  0.14676804  0.78280973  0.95742923    -0.77100
C413        C  0.11973681  0.78295193  0.98349557     0.83700
N414        N  0.10787903  0.76092870  0.00276909    -0.77000
C415        C  0.12341534  0.73888880  0.99517916     0.83800
N416        N  0.15052076  0.73913406  0.96951620    -0.78700
O417        O  0.12258678  0.69215427  0.48852092    -0.56800
C418        C  0.02792927  0.65873011  0.02764829     0.75800
O419        O  0.11545692  0.62548741  0.47509232    -0.58000
C420        C  0.11010771  0.71255801  0.50542007     0.75800
C421        C  0.12419446  0.64322261  0.12925674     0.78200
Cd422      Cd  0.09270190  0.66291182  0.02614826     1.37500
O423        O  0.04282940  0.66596066  0.07462236    -0.56800
O424        O  0.12000491  0.66686015  0.12581436    -0.55600
C425        C  0.11900509  0.63697239  0.42577970     0.78100
O426        O  0.11154246  0.62896985  0.08896595    -0.58000
O427        O  0.04267262  0.65263174  0.98020521    -0.56400
O428        O  0.08733079  0.71045898  0.53801424    -0.56400
O429        O  0.10590309  0.65805966  0.42197342    -0.55600
O430        O  0.22571270  0.61568648  0.32003493    -0.56800
C431        C  0.15595130  0.55676063  0.25222297     0.75800
O432        O  0.14482328  0.64069231  0.33174797    -0.58000
C433        C  0.24019939  0.61423313  0.27075728     0.75800
C434        C  0.14292156  0.63248572  0.17689180     0.78200
Cd435      Cd  0.17467189  0.60867201  0.27379159     1.37500
O436        O  0.17433412  0.56174992  0.29517691    -0.56800
O437        O  0.14803202  0.60888031  0.17620022    -0.55600
C438        C  0.13831214  0.62716037  0.37613877     0.78100
O439        O  0.15475835  0.64597600  0.22006501    -0.58000
O440        O  0.14806622  0.57501150  0.22041680    -0.56400
O441        O  0.22481603  0.61141405  0.22223181    -0.56400
O442        O  0.15000322  0.60533901  0.37611020    -0.55600
C443        C  0.10324295  0.50841496  0.19460221     0.81200
N444        N  0.11904042  0.99092167  0.21095050    -0.77100
C445        C  0.14546785  0.99043728  0.24064318     0.83700
N446        N  0.15587063  0.50978817  0.25651145    -0.77000
C447        C  0.14277955  0.53171678  0.23940646     0.83800
N448        N  0.11663688  0.53082497  0.20862806    -0.78700
C449        C  0.28536222  0.76688460  0.38898108     0.30800
C450        C  0.25982883  0.78149294  0.38161386    -0.35600
C451        C  0.23303928  0.76824689  0.38297372     0.16800
C452        C  0.23157134  0.74234204  0.39035460     0.22600
C453        C  0.25959945  0.73276098  0.89793129    -0.33700
C454        C  0.28370989  0.74088267  0.39434948     0.16700
O455        O  0.31211687  0.77577911  0.40054280    -0.25700
C456        C  0.33120163  0.75908402  0.90588579     0.06500
C457        C  0.31433472  0.73708922  0.89939981    -0.30600
O458        O  0.20790286  0.73981219  0.91818091    -0.22400
C459        C  0.19236513  0.76105082  0.92669256    -0.02400
C460        C  0.20509026  0.77717236  0.38980790    -0.16800
H461        H  0.26066205  0.80207902  0.38077663     0.21100
H462        H  0.25870620  0.71226343  0.90107672     0.19500
H463        H  0.32124655  0.71767931  0.90586475     0.19500
H464        H  0.19808182  0.79685622  0.39259535     0.15300
C465        C  0.48084437  0.49882579  0.15194347     0.30800
C466        C  0.00217456  0.48277582  0.14203306    -0.35600
C467        C  0.02927620  0.49542399  0.14475136     0.16800
C468        C  0.03159278  0.52158974  0.14564805     0.22600
C469        C  0.00648425  0.53705462  0.14261764    -0.33700
C470        C  0.48263702  0.52502257  0.15734508     0.16700
O471        O  0.45396597  0.49043255  0.16028179    -0.25700
C472        C  0.43837227  0.51147778  0.17078803     0.06500
C473        C  0.45494127  0.53359028  0.16860301    -0.30600
O474        O  0.05851706  0.52949911  0.15915702    -0.22400
C475        C  0.07357154  0.50817816  0.16707154    -0.02400
C476        C  0.05659618  0.48638294  0.15769767    -0.16800
H477        H  0.00058242  0.46233060  0.14591338     0.21100
H478        H  0.00796279  0.55763396  0.14686806     0.19500
H479        H  0.44819435  0.55292224  0.18035767     0.19500
H480        H  0.06275096  0.46690427  0.16572367     0.15300
O481        O  0.29092925  0.91273461  0.81242099    -0.56800
C482        C  0.36019557  0.96547420  0.75093810     0.74600
O483        O  0.36481517  0.88081983  0.82304316    -0.58000
C484        C  0.27593253  0.90891882  0.76366814     0.75800
C485        C  0.37146279  0.88923360  0.66070280     0.78200
Cd486      Cd  0.34102270  0.91378394  0.76424708     1.37500
O487        O  0.37589442  0.94606026  0.74074166    -0.56800
O488        O  0.36426336  0.91246197  0.66195777    -0.55600
C489        C  0.37418480  0.89495034  0.86727510     0.78100
O490        O  0.36201609  0.87635879  0.70424195    -0.58000
O491        O  0.33456573  0.96171209  0.77095587    -0.56400
O492        O  0.29066656  0.90628574  0.71477086    -0.56400
O493        O  0.36603059  0.91794488  0.86788657    -0.55600
O494        O  0.47678354  0.86508246  0.55821584    -0.56800
C495        C  0.41461380  0.80818046  0.98279394     0.75800
O496        O  0.40152346  0.89205335  0.57181401    -0.58000
C497        C  0.49128610  0.86228266  0.50916984     0.75800
C498        C  0.39381748  0.88469322  0.91434449     0.78200
Cd499      Cd  0.42633426  0.85789336  0.50987517     1.37500
O500        O  0.42652899  0.81494621  0.03368860    -0.56800
O501        O  0.40313454  0.86209321  0.90880903    -0.55600
C502        C  0.39041340  0.87825223  0.61159285     0.78100
O503        O  0.40244740  0.89757923  0.96158963    -0.58000
O504        O  0.41159582  0.82506616  0.94378018    -0.56400
O505        O  0.47613914  0.85839721  0.46075163    -0.56400
O506        O  0.39694114  0.85488444  0.60715750    -0.55600
C507        C  0.40750968  0.51007994  0.69384534     0.81200
N508        N  0.39373404  0.53248725  0.70534473    -0.77100
C509        C  0.36795197  0.53345219  0.73644020     0.83700
N510        N  0.35569990  0.51159126  0.75652166    -0.77000
C511        C  0.37189292  0.99047380  0.73687236     0.83800
N512        N  0.39743589  0.99088562  0.70506536    -0.78700
C513        C  0.35748481  0.75624468  0.43921307     0.81200
N514        N  0.37013932  0.73489828  0.45924606    -0.77100
C515        C  0.39667133  0.73564879  0.48825809     0.83700
N516        N  0.41074711  0.75833741  0.49858490    -0.77000
C517        C  0.39790220  0.77995139  0.47850798     0.83800
N518        N  0.37144771  0.77870845  0.44879023    -0.78700
O519        O  0.39250710  0.69212689  0.50654803    -0.56800
C520        C  0.49403929  0.65681310  0.53106679     0.75800
O521        O  0.40912324  0.62827605  0.59399095    -0.58000
C522        C  0.40898684  0.71138681  0.50656421     0.75800
C523        C  0.39817785  0.64115446  0.92757497     0.78200
Cd524      Cd  0.42886888  0.66057143  0.52765589     1.37500
O525        O  0.47931367  0.66726307  0.57413997    -0.56800
O526        O  0.40712953  0.66389560  0.92903837    -0.55600
C527        C  0.39744775  0.64337402  0.63327985     0.78100
O528        O  0.40593993  0.62795552  0.97214727    -0.58000
O529        O  0.47900849  0.64704707  0.48674849    -0.56400
O530        O  0.43584821  0.70798778  0.51999429    -0.56400
O531        O  0.40277598  0.66675421  0.62812616    -0.55600
O532        O  0.29233899  0.61115272  0.82180693    -0.56800
C533        C  0.35547445  0.55873303  0.74981684     0.75800
O534        O  0.36543506  0.64814952  0.72074114    -0.58000
C535        C  0.27753378  0.61708114  0.77518866     0.75800
C536        C  0.37891569  0.63105711  0.87753509     0.78200
Cd537      Cd  0.34257229  0.61183195  0.77491712     1.37500
O538        O  0.34538750  0.56575416  0.80179440    -0.56800
O539        O  0.37307849  0.60763562  0.87016981    -0.55600
C540        C  0.37811084  0.63379390  0.68090992     0.78100
O541        O  0.36669499  0.64560301  0.84027139    -0.58000
O542        O  0.35728383  0.57552308  0.71036923    -0.56400
O543        O  0.29245749  0.62231664  0.72865974    -0.56400
O544        O  0.37282599  0.61029278  0.68278720    -0.55600
O545        O  0.22875373  0.91308738  0.81270615    -0.56800
C546        C  0.15768865  0.96294594  0.75261100     0.75800
O547        O  0.15908952  0.87440527  0.70084369    -0.58000
C548        C  0.24313998  0.90848794  0.76408640     0.75800
C549        C  0.14404149  0.89186282  0.86604585     0.78200
Cd550      Cd  0.17786295  0.91145785  0.76548659     1.37500
O551        O  0.14420596  0.94334172  0.73260506    -0.56800
O552        O  0.14953099  0.91530424  0.86325569    -0.55600
C553        C  0.14822188  0.88802863  0.65967495     0.78100
O554        O  0.15619167  0.87736696  0.82608536    -0.58000
O555        O  0.18170898  0.95941369  0.78107068    -0.56400
O556        O  0.22776087  0.90427231  0.71596162    -0.56400
O557        O  0.15373580  0.91156050  0.66447625    -0.55600
O558        O  0.11405401  0.82361860  0.44891632    -0.56800
C559        C  0.02807296  0.86418712  0.51027022     0.75800
O560        O  0.11574238  0.89217422  0.57422006    -0.58000
C561        C  0.10843291  0.80627601  0.48517167     0.75800
C562        C  0.12443311  0.88182711  0.91272291     0.78200
Cd563      Cd  0.09310578  0.85879006  0.50729515     1.37500
O564        O  0.04338453  0.86283577  0.55876585    -0.56800
O565        O  0.11881232  0.85835006  0.91367791    -0.55600
C566        C  0.12929887  0.87761014  0.60954160     0.78100
O567        O  0.11218376  0.89598495  0.95348759    -0.58000
O568        O  0.03907121  0.86742472  0.96043821    -0.56400
O569        O  0.09393169  0.81258839  0.53274374    -0.56400
O570        O  0.12513342  0.85399315  0.60006841    -0.55600
C571        C  0.15933856  0.75671395  0.42983318     0.81200
N572        N  0.14568987  0.77924242  0.43991160    -0.77100
C573        C  0.12060495  0.78087793  0.47309032     0.83700
N574        N  0.10876345  0.75956438  0.49655038    -0.77000
C575        C  0.12222789  0.73669399  0.48531035     0.83800
N576        N  0.14752648  0.73556196  0.45253015    -0.78700
O577        O  0.08444436  0.71001262  0.01915357    -0.56800
C578        C  0.02429212  0.65714055  0.53153941     0.75800
O579        O  0.11364212  0.62641466  0.96395248    -0.58000
C580        C  0.11158845  0.71427572  0.01154272     0.75800
C581        C  0.12393918  0.64289931  0.63187825     0.78200
Cd582      Cd  0.08966234  0.66177636  0.52967706     1.37500
O583        O  0.03914110  0.66318286  0.57942094    -0.56800
O584        O  0.12097259  0.66652011  0.62503952    -0.55600
C585        C  0.12432423  0.64007320  0.92321262     0.78100
O586        O  0.10932394  0.62836394  0.59524649    -0.58000
O587        O  0.03924878  0.65227763  0.48379900    -0.56400
O588        O  0.12877383  0.69558982  0.01513127    -0.56400
O589        O  0.11756337  0.66335496  0.92635589    -0.55600
O590        O  0.23051330  0.61031769  0.82136198    -0.56800
C591        C  0.16726196  0.55755091  0.75288702     0.75800
O592        O  0.15757636  0.64432286  0.84021165    -0.58000
C593        C  0.24479601  0.61656994  0.77490266     0.75800
C594        C  0.14362918  0.63256595  0.67899392     0.78200
Cd595      Cd  0.17990809  0.61051598  0.77391315     1.37500
O596        O  0.17650191  0.56535203  0.80539710    -0.56800
O597        O  0.14723526  0.60886948  0.68256955    -0.55600
C598        C  0.14401628  0.62981590  0.87506021     0.78100
O599        O  0.15808111  0.64660713  0.71724341    -0.58000
O600        O  0.16676243  0.57343740  0.71108657    -0.56400
O601        O  0.22940255  0.62123683  0.72800036    -0.56400
O602        O  0.14859774  0.60626368  0.86654415    -0.55600
C603        C  0.11234142  0.51022763  0.70263349     0.81200
N604        N  0.11875964  0.98853615  0.71169071    -0.77100
C605        C  0.14522683  0.98798381  0.74094258     0.83700
N606        N  0.16563043  0.51068102  0.76175002    -0.77000
C607        C  0.15369240  0.53265916  0.74146130     0.83800
N608        N  0.12718834  0.53224389  0.71208652    -0.78700
C609        C  0.28812515  0.77200920  0.89526167     0.30800
C610        C  0.26276726  0.78713286  0.89959184    -0.35600
C611        C  0.23606135  0.77408906  0.90453323     0.16800
C612        C  0.23438131  0.74790287  0.90445945     0.22600
C613        C  0.25705895  0.72764357  0.39489481    -0.33700
C614        C  0.28632846  0.74579818  0.89376635     0.16700
O615        O  0.31538945  0.78024018  0.90254638    -0.25700
C616        C  0.32763287  0.75514788  0.41302634     0.06500
C617        C  0.31115685  0.73293612  0.40899779    -0.30600
O618        O  0.20481340  0.73460992  0.40269591    -0.22400
C619        C  0.18881664  0.75571726  0.40303245    -0.02400
C620        C  0.20866929  0.78295211  0.91829241    -0.16800
H621        H  0.26401363  0.80770876  0.90412484     0.21100
H622        H  0.25611050  0.70757727  0.40425229     0.19500
H623        H  0.31778933  0.71401765  0.42117859     0.19500
H624        H  0.20189357  0.80255203  0.92592459     0.15300
C625        C  0.47954150  0.49459898  0.65481785     0.30800
C626        C  0.01127264  0.48358194  0.66211127    -0.35600
C627        C  0.03795512  0.49674441  0.66146680     0.16800
C628        C  0.03967831  0.52296519  0.66285912     0.22600
C629        C  0.01421697  0.53798852  0.66339046    -0.33700
C630        C  0.48185411  0.52057499  0.64963492     0.16700
O631        O  0.45252478  0.48744219  0.66664552    -0.25700
C632        C  0.43731406  0.50902071  0.66897416     0.06500
C633        C  0.45432353  0.53024513  0.65796224    -0.30600
O634        O  0.06672835  0.53127360  0.67294017    -0.22400
C635        C  0.08234961  0.51010792  0.67791607    -0.02400
C636        C  0.06568538  0.48809030  0.67016687    -0.16800
H637        H  0.01035318  0.46308374  0.66549768     0.21100
H638        H  0.01526206  0.55859240  0.66774479     0.19500
H639        H  0.44798773  0.55007617  0.66211979     0.19500
H640        H  0.07248267  0.46865432  0.67682145     0.15300
O641        O  0.79021236  0.41408475  0.32095532    -0.56800
C642        C  0.85497989  0.46499441  0.24309218     0.74600
O643        O  0.86576307  0.38034709  0.32578836    -0.58000
C644        C  0.77466848  0.40789654  0.27429820     0.75800
C645        C  0.87153361  0.38898519  0.17001389     0.78200
Cd646      Cd  0.83953522  0.41331506  0.26959603     1.37500
O647        O  0.83897878  0.46140598  0.28924981    -0.56800
O648        O  0.86599385  0.41251133  0.17286828    -0.55600
C649        C  0.87678039  0.39473654  0.36777379     0.78100
O650        O  0.85932180  0.37558987  0.20963518    -0.58000
O651        O  0.86233916  0.44551892  0.21148993    -0.56400
O652        O  0.78877078  0.40307755  0.22536457    -0.56400
O653        O  0.86951633  0.41793677  0.36720728    -0.55600
O654        O  0.97872522  0.36176505  0.07472345    -0.56800
C655        C  0.91065662  0.30852313  0.49834940     0.75800
O656        O  0.90639734  0.39279149  0.09009446    -0.58000
C657        C  0.99335200  0.36395688  0.02609198     0.75800
C658        C  0.89637905  0.38450852  0.41505198     0.78200
Cd659      Cd  0.92821463  0.35905048  0.02389407     1.37500
O660        O  0.93048451  0.31446590  0.53770040    -0.56800
O661        O  0.90482391  0.36161641  0.41141997    -0.55600
C662        C  0.89176557  0.37839385  0.12341515     0.78100
O663        O  0.90508109  0.39764755  0.46181526    -0.58000
O664        O  0.90058170  0.32621729  0.46709594    -0.56400
O665        O  0.97823238  0.36510301  0.97718998    -0.56400
O666        O  0.89582563  0.35477640  0.11479325    -0.55600
C667        C  0.90972832  0.01322176  0.18956510     0.81200
N668        N  0.89542941  0.03484545  0.20653260    -0.77100
C669        C  0.87036063  0.03416568  0.23971185     0.83700
N670        N  0.85922683  0.01142224  0.25637077    -0.77000
C671        C  0.86639557  0.48976530  0.22635737     0.83800
N672        N  0.89221668  0.48990442  0.19557277    -0.78700
C673        C  0.86203300  0.25558766  0.94758768     0.81200
N674        N  0.87735259  0.23460155  0.96176397    -0.77100
C675        C  0.90360669  0.23661931  0.99189526     0.83700
N676        N  0.91478359  0.25995270  0.00843372    -0.77000
C677        C  0.89970977  0.28110807  0.99256769     0.83800
N678        N  0.87338316  0.27874206  0.96275112    -0.78700
O679        O  0.91932714  0.19481013  0.96872893    -0.56800
C680        C  0.99680960  0.15828361  0.03946445     0.75800
O681        O  0.91168533  0.12909630  0.10452838    -0.58000
C682        C  0.91800157  0.21304259  0.00805655     0.75800
C683        C  0.89701686  0.14105687  0.43820562     0.78200
Cd684      Cd  0.93160782  0.16202184  0.03861220     1.37500
O685        O  0.98256417  0.16643534  0.08582670    -0.56800
O686        O  0.89500987  0.16420943  0.45466681    -0.55600
C687        C  0.89806067  0.14388270  0.14166695     0.78100
O688        O  0.91536493  0.12796162  0.46764463    -0.58000
O689        O  0.98132690  0.15098001  0.99345160    -0.56400
O690        O  0.92635880  0.20872974  0.06227090    -0.56400
O691        O  0.90160828  0.16740114  0.13479375    -0.55600
O692        O  0.79328711  0.10740924  0.33198350    -0.56800
C693        C  0.85663514  0.05859519  0.25630430     0.75800
O694        O  0.86423721  0.14787823  0.22667844    -0.58000
C695        C  0.77790129  0.11554243  0.28833061     0.75800
C696        C  0.87849689  0.13038733  0.38775749     0.78200
Cd697      Cd  0.84333401  0.11111525  0.28394727     1.37500
O698        O  0.85024655  0.06549042  0.31101369    -0.56800
O699        O  0.87853019  0.10701605  0.37204166    -0.55600
C700        C  0.87884348  0.13383903  0.18928206     0.78100
O701        O  0.86129110  0.14435907  0.35809135    -0.58000
O702        O  0.85391517  0.07502329  0.21606185    -0.56400
O703        O  0.79233482  0.12260392  0.24264689    -0.56400
O704        O  0.87579252  0.11019516  0.19396917    -0.55600
O705        O  0.72812620  0.41386008  0.32498885    -0.56800
C706        C  0.65832503  0.46262967  0.25603678     0.75800
O707        O  0.65275700  0.37404559  0.22466057    -0.58000
C708        C  0.74196656  0.40744219  0.27664794     0.75800
C709        C  0.64371117  0.39394242  0.38244794     0.78200
Cd710      Cd  0.67703208  0.41148049  0.27908115     1.37500
O711        O  0.64312021  0.44294674  0.24454960    -0.56800
O712        O  0.64873764  0.41738811  0.37718672    -0.55600
C713        C  0.64657035  0.38603225  0.17701231     0.78100
O714        O  0.65652285  0.37890834  0.34461339    -0.58000
O715        O  0.68305290  0.45943403  0.28194174    -0.56400
O716        O  0.72613270  0.40152660  0.23010935    -0.56400
O717        O  0.65693510  0.40824444  0.17466222    -0.55600
O718        O  0.62410437  0.32156683  0.98485866    -0.56800
C719        C  0.52905189  0.36267931  0.01963914     0.75800
O720        O  0.62083940  0.38871834  0.08214240    -0.58000
C721        C  0.61151375  0.30325096  0.00910859     0.75800
C722        C  0.62364091  0.38426931  0.42888874     0.78200
Cd723      Cd  0.59398542  0.35592555  0.02165644     1.37500
O724        O  0.54440655  0.36666702  0.06779335    -0.56800
O725        O  0.61756682  0.36085639  0.42941350    -0.55600
C726        C  0.62788730  0.37538803  0.12679212     0.78100
O727        O  0.61130077  0.39852674  0.46941463    -0.58000
O728        O  0.53738232  0.36622750  0.47536891    -0.56400
O729        O  0.58918711  0.30863653  0.04146095    -0.56400
O730        O  0.61772904  0.35298405  0.12578223    -0.55600
C731        C  0.66348553  0.25350543  0.95965952     0.81200
N732        N  0.65016692  0.27608237  0.97072991    -0.77100
C733        C  0.62378154  0.27765825  0.99910091     0.83700
N734        N  0.61017497  0.25604758  0.01675564    -0.77000
C735        C  0.62371535  0.23313781  0.00564670     0.83800
N736        N  0.65031037  0.23213040  0.97754309    -0.78700
O737        O  0.58444692  0.21226852  0.54715880    -0.56800
C738        C  0.52579804  0.15344309  0.04172868     0.75800
O739        O  0.61640171  0.12843471  0.48917479    -0.58000
C740        C  0.61094563  0.21654286  0.53335715     0.75800
C741        C  0.62488866  0.14086376  0.14559093     0.78200
Cd742      Cd  0.59106480  0.15769865  0.04060734     1.37500
O743        O  0.54100420  0.15852320  0.08966672    -0.56800
O744        O  0.61686660  0.16379371  0.14258338    -0.55600
C745        C  0.62579281  0.14179046  0.44654186     0.78100
O746        O  0.61487257  0.12557519  0.10412380    -0.58000
O747        O  0.54038569  0.14892011  0.99322303    -0.56400
O748        O  0.62823805  0.19781075  0.53291754    -0.56400
O749        O  0.61774905  0.16479689  0.44825332    -0.55600
O750        O  0.73122901  0.10824155  0.33625751    -0.56800
C751        C  0.66166071  0.05918647  0.26968513     0.75800
O752        O  0.65696440  0.14561307  0.35943923    -0.58000
C753        C  0.74503820  0.11574767  0.29036127     0.75800
C754        C  0.64498228  0.13212115  0.19406543     0.78200
Cd755      Cd  0.67944357  0.11130184  0.29348503     1.37500
O756        O  0.68062325  0.06366537  0.31179593    -0.56800
O757        O  0.65507832  0.10971232  0.19173263    -0.55600
C758        C  0.64518023  0.13139483  0.39755137     0.78100
O759        O  0.65310899  0.14622979  0.23980471    -0.58000
O760        O  0.65264423  0.07798445  0.24112977    -0.56400
O761        O  0.72898506  0.12255679  0.24616139    -0.56400
O762        O  0.65107359  0.10795851  0.39120046    -0.55600
C763        C  0.61124833  0.01173411  0.20014583     0.81200
N764        N  0.62023881  0.48749170  0.20965284    -0.77100
C765        C  0.64688870  0.48733261  0.23821071     0.83700
N766        N  0.66242659  0.01186279  0.26730036    -0.77000
C767        C  0.64916793  0.03416609  0.25320220     0.83800
N768        N  0.62369264  0.03383417  0.22011566    -0.78700
C769        C  0.78470994  0.26913351  0.41077133     0.30800
C770        C  0.75955433  0.28431537  0.40507712    -0.35600
C771        C  0.73247777  0.27184371  0.40969710     0.16800
C772        C  0.73041397  0.24603547  0.41790779     0.22600
C773        C  0.76125831  0.22491901  0.91307095    -0.33700
C774        C  0.78252237  0.24326402  0.41796307     0.16700
O775        O  0.81177391  0.27758923  0.41956394    -0.25700
C776        C  0.83185263  0.25345884  0.92325667     0.06500
C777        C  0.81592527  0.23087175  0.91947603    -0.30600
O778        O  0.70903909  0.23147385  0.92908428    -0.22400
C779        C  0.69305263  0.25263206  0.93327943    -0.02400
C780        C  0.70495611  0.28156122  0.41851034    -0.16800
H781        H  0.76103210  0.30483784  0.40317878     0.21100
H782        H  0.76091966  0.20467100  0.92054885     0.19500
H783        H  0.82346296  0.21197887  0.92974666     0.19500
H784        H  0.69850586  0.30138794  0.42092771     0.15300
C785        C  0.98112530  0.00228762  0.13742797     0.30800
C786        C  0.51076522  0.98543093  0.15095387    -0.35600
C787        C  0.53745655  0.99876348  0.15162902     0.16800
C788        C  0.53897489  0.02495393  0.15811665     0.22600
C789        C  0.51341594  0.03978921  0.16260453    -0.33700
C790        C  0.98258202  0.02850169  0.14297341     0.16700
O791        O  0.95456564  0.99355534  0.14824164    -0.25700
C792        C  0.93876189  0.01435191  0.16065393     0.06500
C793        C  0.95490021  0.03666830  0.15671902    -0.30600
O794        O  0.56588993  0.03307608  0.17060800    -0.22400
C795        C  0.58175962  0.01188293  0.17218362    -0.02400
C796        C  0.56534608  0.99001318  0.15929323    -0.16800
H797        H  0.51001530  0.96481961  0.15061145     0.21100
H798        H  0.51438167  0.06024114  0.17120893     0.19500
H799        H  0.94817897  0.05583599  0.17016784     0.19500
H800        H  0.57221546  0.97043549  0.16324255     0.15300
O801        O  0.79357839  0.41344825  0.82282074    -0.56800
C802        C  0.86218133  0.46344865  0.76067723     0.74600
O803        O  0.86879597  0.37743656  0.83061984    -0.58000
C804        C  0.77845685  0.40608832  0.77624851     0.75800
C805        C  0.87360133  0.38903345  0.66709694     0.78200
Cd806      Cd  0.84381165  0.41118174  0.77367016     1.37500
O807        O  0.87939900  0.44468076  0.76166370    -0.56800
O808        O  0.86747547  0.41242417  0.67270252    -0.55600
C809        C  0.87802038  0.39155256  0.87506517     0.78100
O810        O  0.86316764  0.37497064  0.70735097    -0.58000
O811        O  0.83520550  0.45885327  0.76923391    -0.56400
O812        O  0.79318716  0.39986520  0.72888208    -0.56400
O813        O  0.86938114  0.41439786  0.87611944    -0.55600
O814        O  0.97830257  0.36920718  0.56294589    -0.56800
C815        C  0.91103143  0.30680538  0.00545875     0.75800
O816        O  0.90446008  0.39399278  0.58038346    -0.58000
C817        C  0.99334500  0.36613578  0.51467113     0.75800
C818        C  0.89736726  0.38160834  0.92312147     0.78200
Cd819      Cd  0.92809791  0.36095097  0.51391210     1.37500
O820        O  0.93296989  0.31200840  0.04014278    -0.56800
O821        O  0.90614357  0.35879141  0.92026218    -0.55600
C822        C  0.89255030  0.37918195  0.61701132     0.78100
O823        O  0.90572825  0.39510385  0.96961556    -0.58000
O824        O  0.89845495  0.32522186  0.98110723    -0.56400
O825        O  0.97860341  0.36192747  0.46574720    -0.56400
O826        O  0.89835267  0.35579304  0.60884280    -0.55600
C827        C  0.90754134  0.01142996  0.68851695     0.81200
N828        N  0.89312221  0.03301465  0.70514382    -0.77100
C829        C  0.86718065  0.03208563  0.73530244     0.83700
N830        N  0.85538786  0.00922408  0.74929860    -0.77000
C831        C  0.87389685  0.48851342  0.74632645     0.83800
N832        N  0.90121527  0.48906603  0.72177611    -0.78700
C833        C  0.85732568  0.25835834  0.45609490     0.81200
N834        N  0.87087925  0.23740029  0.47601682    -0.77100
C835        C  0.89812102  0.23883583  0.50202591     0.83700
N836        N  0.91196265  0.26177631  0.50936276    -0.77000
C837        C  0.89806400  0.28301029  0.48982457     0.83800
N838        N  0.87093456  0.28108427  0.46326550    -0.78700
O839        O  0.89378955  0.19778827  0.53875231    -0.56800
C840        C  0.99290145  0.15950603  0.54520580     0.75800
O841        O  0.90602184  0.12937903  0.60179694    -0.58000
C842        C  0.91085033  0.21507297  0.52244704     0.75800
C843        C  0.89546706  0.13756030  0.94222786     0.78200
Cd844      Cd  0.92826528  0.16359421  0.54361628     1.37500
O845        O  0.97872991  0.16792928  0.59157252    -0.56800
O846        O  0.89037881  0.15950427  0.96518450    -0.55600
C847        C  0.89666467  0.14314596  0.64634919     0.78100
O848        O  0.91780848  0.12614252  0.96330146    -0.58000
O849        O  0.97747908  0.15222513  0.49900593    -0.56400
O850        O  0.93803303  0.20973507  0.52039996    -0.56400
O851        O  0.90430928  0.16627050  0.64744518    -0.55600
O852        O  0.79204501  0.10199554  0.83026215    -0.56800
C853        C  0.85383318  0.05637143  0.75381753     0.75800
O854        O  0.86563199  0.14588418  0.73586732    -0.58000
C855        C  0.77719868  0.11291459  0.78973315     0.75800
C856        C  0.87655376  0.12675314  0.89232190     0.78200
Cd857      Cd  0.84204846  0.10859934  0.78611283     1.37500
O858        O  0.84882906  0.06284843  0.80943873    -0.56800
O859        O  0.87980978  0.10441300  0.86985742    -0.55600
C860        C  0.87752301  0.13248611  0.69322542     0.78100
O861        O  0.85639735  0.13984973  0.86858974    -0.58000
O862        O  0.85054948  0.07317189  0.71466205    -0.56400
O863        O  0.79199967  0.12292966  0.74817451    -0.56400
O864        O  0.87166467  0.10904958  0.69185779    -0.55600
O865        O  0.73112858  0.41380017  0.82321470    -0.56800
C866        C  0.65864612  0.46106426  0.76423704     0.75800
O867        O  0.65553145  0.37534413  0.71436141    -0.58000
C868        C  0.74552005  0.40586227  0.77679936     0.75800
C869        C  0.64665382  0.38905230  0.87701201     0.78200
Cd870      Cd  0.67988668  0.40990946  0.77682623     1.37500
O871        O  0.64337132  0.44120699  0.75696845    -0.56800
O872        O  0.65342926  0.41236800  0.87718706    -0.55600
C873        C  0.64761460  0.38931160  0.67124337     0.78100
O874        O  0.65778788  0.37504410  0.83473738    -0.58000
O875        O  0.68508715  0.45815561  0.78160769    -0.56400
O876        O  0.73001610  0.39861956  0.73060719    -0.56400
O877        O  0.65811790  0.41159539  0.67247581    -0.55600
O878        O  0.60538465  0.32551460  0.46413206    -0.56800
C879        C  0.52285299  0.36798648  0.52456045     0.75800
O880        O  0.61669892  0.39516099  0.58345571    -0.58000
C881        C  0.60383794  0.30960845  0.50565542     0.75800
C882        C  0.62693198  0.37862789  0.92336272     0.78200
Cd883      Cd  0.58827217  0.36233417  0.52349742     1.37500
O884        O  0.53817498  0.36896545  0.57338060    -0.56800
O885        O  0.61914442  0.35552973  0.92065342    -0.55600
C886        C  0.62658824  0.38042902  0.62314218     0.78100
O887        O  0.61692438  0.39211553  0.96797024    -0.58000
O888        O  0.54339199  0.35690572  0.97153625    -0.56400
O889        O  0.59230170  0.31718714  0.55585032    -0.56400
O890        O  0.61691775  0.35787161  0.62009449    -0.55600
C891        C  0.65883681  0.26168516  0.45947256     0.81200
N892        N  0.64381149  0.28378436  0.46607343    -0.77100
C893        C  0.61784636  0.28472092  0.49667154     0.83700
N894        N  0.60669311  0.26324359  0.52075654    -0.77000
C895        C  0.62186977  0.24098543  0.51336184     0.83800
N896        N  0.64779516  0.24055443  0.48328866    -0.78700
O897        O  0.62685705  0.18931214  0.02000393    -0.56800
C898        C  0.52849984  0.15938397  0.54934203     0.75800
O899        O  0.61328841  0.12076467  0.98027587    -0.58000
C900        C  0.61089142  0.20885915  0.02236552     0.75800
C901        C  0.62583120  0.14452554  0.65167153     0.78200
Cd902      Cd  0.59352575  0.16472897  0.54989890     1.37500
O903        O  0.54285176  0.16772398  0.59608361    -0.56800
O904        O  0.62132087  0.16821084  0.65018932    -0.55600
C905        C  0.62229554  0.13425506  0.93742099     0.78100
O906        O  0.61292717  0.13071464  0.61096553    -0.58000
O907        O  0.54387850  0.15260390  0.50327215    -0.56400
O908        O  0.58425673  0.20570353  0.03701033    -0.56400
O909        O  0.61370902  0.15709782  0.93870099    -0.55600
O910        O  0.73019382  0.10445890  0.83427009    -0.56800
C911        C  0.66394503  0.05550226  0.75458943     0.75800
O912        O  0.65424814  0.13959911  0.85292177    -0.58000
C913        C  0.74449924  0.11284234  0.79002380     0.75800
C914        C  0.64537744  0.13308665  0.69692127     0.78200
Cd915      Cd  0.67956279  0.10739571  0.78744869     1.37500
O916        O  0.67512376  0.06092557  0.80698497    -0.56800
O917        O  0.65111885  0.10958211  0.69263250    -0.55600
C918        C  0.64243580  0.12461799  0.88915864     0.78100
O919        O  0.65745960  0.14577249  0.74110147    -0.58000
O920        O  0.66250953  0.07322271  0.71743767    -0.56400
O921        O  0.72912902  0.12009811  0.74535749    -0.56400
O922        O  0.64936727  0.10141918  0.88203297    -0.55600
C923        C  0.60784254  0.00979384  0.69912195     0.81200
N924        N  0.61902645  0.48458874  0.71968635    -0.77100
C925        C  0.64542311  0.48545490  0.74941640     0.83700
N926        N  0.66241984  0.00833999  0.75260651    -0.77000
C927        C  0.64992908  0.03103275  0.73885300     0.83800
N928        N  0.62275225  0.03157135  0.71233444    -0.78700
C929        C  0.78862077  0.26461340  0.90602393     0.30800
C930        C  0.76277706  0.27903631  0.90422188    -0.35600
C931        C  0.73641907  0.26554970  0.90891370     0.16800
C932        C  0.73542178  0.23950929  0.91411871     0.22600
C933        C  0.75550089  0.23070140  0.42110605    -0.33700
C934        C  0.78771577  0.23848170  0.90938071     0.16700
O935        O  0.81534837  0.27386239  0.91463142    -0.25700
C936        C  0.82704094  0.25692197  0.43249105     0.06500
C937        C  0.81007013  0.23495153  0.43134413    -0.30600
O938        O  0.70365510  0.23904571  0.43204124    -0.22400
C939        C  0.68831102  0.26053327  0.43299206    -0.02400
C940        C  0.70883859  0.27430266  0.92023849    -0.16800
H941        H  0.76329457  0.29966453  0.90512530     0.21100
H942        H  0.75407640  0.21074874  0.43138327     0.19500
H943        H  0.81652742  0.21610956  0.44450098     0.19500
H944        H  0.70175873  0.29394630  0.92470362     0.15300
C945        C  0.98023641  0.99958405  0.64839644     0.30800
C946        C  0.50647188  0.98535654  0.64342898    -0.35600
C947        C  0.53333023  0.99817147  0.65112692     0.16800
C948        C  0.53533773  0.02430121  0.65838197     0.22600
C949        C  0.51017273  0.03964155  0.65703887    -0.33700
C950        C  0.98175345  0.02579849  0.64879291     0.16700
O951        O  0.95348976  0.99124313  0.65801254    -0.25700
C952        C  0.93750302  0.01225618  0.66454283     0.06500
C953        C  0.95380035  0.03438275  0.65845614    -0.30600
O954        O  0.56214632  0.03199422  0.67363311    -0.22400
C955        C  0.57745975  0.01052822  0.67591037    -0.02400
C956        C  0.56070597  0.98892772  0.66195830    -0.16800
H957        H  0.50510355  0.96476210  0.64245256     0.21100
H958        H  0.51131697  0.06004738  0.66616328     0.19500
H959        H  0.94669253  0.05388325  0.66642276     0.19500
H960        H  0.56727892  0.96919441  0.66397125     0.15300
O961        O  0.79322710  0.91628760  0.31673087    -0.56800
C962        C  0.86192286  0.96419985  0.25129455     0.74600
O963        O  0.86919551  0.87839551  0.32091385    -0.58000
C964        C  0.77789826  0.90855686  0.27091393     0.75800
C965        C  0.87155731  0.88925377  0.16058172     0.78200
Cd966      Cd  0.84313277  0.91226121  0.26735956     1.37500
O967        O  0.87520921  0.94472679  0.23055348    -0.56800
O968        O  0.86727664  0.91292984  0.16750946    -0.55600
C969        C  0.87900384  0.89224369  0.36517908     0.78100
O970        O  0.85964540  0.87535886  0.19955979    -0.58000
O971        O  0.83890834  0.96032596  0.28185954    -0.56400
O972        O  0.79232923  0.90144615  0.22383354    -0.56400
O973        O  0.87040708  0.91507587  0.36764105    -0.55600
O974        O  0.97720881  0.86165712  0.05701277    -0.56800
C975        C  0.91080730  0.80630983  0.48564759     0.75800
O976        O  0.90552273  0.89358255  0.07883398    -0.58000
C977        C  0.99161989  0.86637211  0.00949797     0.75800
C978        C  0.89887907  0.88196273  0.41151339     0.78200
Cd979      Cd  0.92672832  0.86060329  0.00811474     1.37500
O980        O  0.92980649  0.81111374  0.52750755    -0.56800
O981        O  0.90932129  0.85974139  0.40469010    -0.55600
C982        C  0.89039613  0.87898738  0.11067246     0.78100
O983        O  0.90589914  0.89446551  0.46048092    -0.58000
O984        O  0.90267916  0.82467023  0.45442167    -0.56400
O985        O  0.97631250  0.87013568  0.96190854    -0.56400
O986        O  0.89299850  0.85544460  0.09795943    -0.55600
C987        C  0.90421895  0.51188554  0.17811102     0.81200
N988        N  0.88984533  0.53394721  0.19021810    -0.77100
C989        C  0.86394554  0.53419623  0.22077210     0.83700
N990        N  0.85233138  0.51210174  0.24043218    -0.77000
C991        C  0.87333286  0.98950368  0.23819969     0.83800
N992        N  0.89856339  0.99064038  0.20535765    -0.78700
C993        C  0.86251639  0.75666309  0.93632066     0.81200
N994        N  0.87746481  0.73549542  0.95069467    -0.77100
C995        C  0.90484408  0.73725601  0.97619327     0.83700
N996        N  0.91730147  0.76051185  0.98869306    -0.77000
C997        C  0.90248697  0.78175473  0.97229396     0.83800
N998        N  0.87529063  0.77959263  0.94645398    -0.78700
O999        O  0.92246643  0.69589993  0.95322745    -0.56800
C1000       C  0.99518306  0.65840251  0.02770204     0.75800
O1001       O  0.90981965  0.62866898  0.08885349    -0.58000
C1002       C  0.91877693  0.71359953  0.99333189     0.75800
C1003       C  0.89717895  0.63849246  0.41787449     0.78200
Cd1004     Cd  0.93007307  0.66219981  0.02401106     1.37500
O1005       O  0.98056541  0.66823564  0.07171015    -0.56800
O1006       O  0.90574167  0.66133117  0.42008963    -0.55600
C1007       C  0.89566038  0.64333517  0.12538605     0.78100
O1008       O  0.90550692  0.62495971  0.46153544    -0.58000
O1009       O  0.98007833  0.64906280  0.98311598    -0.56400
O1010       O  0.92362706  0.70848185  0.04882456    -0.56400
O1011       O  0.89921399  0.66687945  0.11892284    -0.55600
O1012       O  0.79025289  0.60876323  0.31673236    -0.56800
C1013       C  0.85112798  0.55900566  0.23602702     0.75800
O1014       O  0.86025954  0.64743745  0.20739665    -0.58000
C1015       C  0.77467129  0.61625216  0.27271152     0.75800
C1016       C  0.87743631  0.62890422  0.36820998     0.78200
Cd1017     Cd  0.83981783  0.61135623  0.26635906     1.37500
O1018       O  0.84220666  0.56535476  0.28935596    -0.56800
O1019       O  0.87124974  0.60560220  0.35987314    -0.55600
C1020       C  0.87583998  0.63327309  0.17198149     0.78100
O1021       O  0.86497167  0.64394028  0.33245326    -0.58000
O1022       O  0.85182726  0.57611978  0.19721842    -0.56400
O1023       O  0.78885484  0.62319152  0.22655019    -0.56400
O1024       O  0.87325927  0.60961174  0.17782241    -0.55600
O1025       O  0.73092860  0.91693738  0.31832015    -0.56800
C1026       C  0.66334772  0.96469566  0.25649658     0.75800
O1027       O  0.66102125  0.87659501  0.20306886    -0.58000
C1028       C  0.74510191  0.90877185  0.27191349     0.75800
C1029       C  0.64388110  0.89247696  0.36947769     0.78200
Cd1030     Cd  0.67971598  0.91263856  0.27223253     1.37500
O1031       O  0.65949141  0.94690560  0.21669352    -0.56800
O1032       O  0.64620984  0.91610887  0.36308201    -0.55600
C1033       C  0.64690354  0.89086626  0.16759111     0.78100
O1034       O  0.65957837  0.87841277  0.33455721    -0.58000
O1035       O  0.67722377  0.95929167  0.30502072    -0.56400
O1036       O  0.72949690  0.90158995  0.22599791    -0.56400
O1037       O  0.64972876  0.91449717  0.17808253    -0.55600
O1038       O  0.60860602  0.82551175  0.95265956    -0.56800
C1039       C  0.52637615  0.86666789  0.01405901     0.75800
O1040       O  0.61341882  0.89563745  0.08333625    -0.58000
C1041       C  0.60657004  0.80934942  0.99354631     0.75800
C1042       C  0.62402906  0.88162702  0.41465478     0.78200
Cd1043     Cd  0.59159840  0.86189870  0.01348671     1.37500
O1044       O  0.54085226  0.85675377  0.05662043    -0.56800
O1045       O  0.62329555  0.85795000  0.42143492    -0.55600
C1046       C  0.62776292  0.88094849  0.11706485     0.78100
O1047       O  0.60685845  0.89506218  0.44827798    -0.58000
O1048       O  0.53825865  0.85897578  0.45933893    -0.56400
O1049       O  0.59491178  0.81668717  0.04378377    -0.56400
O1050       O  0.62442087  0.85744774  0.10532073    -0.55600
C1051       C  0.66144916  0.76114974  0.94910620     0.81200
N1052       N  0.64692982  0.78345975  0.95658331    -0.77100
C1053       C  0.62018908  0.78438406  0.98401183     0.83700
N1054       N  0.60773940  0.76271073  0.00423210    -0.77000
C1055       C  0.62226322  0.74019478  0.99549858     0.83800
N1056       N  0.64900639  0.73973061  0.96851706    -0.78700
O1057       O  0.58679641  0.70914769  0.53555921    -0.56800
C1058       C  0.52562168  0.66091239  0.03713907     0.75800
O1059       O  0.61361131  0.62370934  0.47168556    -0.58000
C1060       C  0.61094182  0.71221045  0.50818571     0.75800
C1061       C  0.62287134  0.64546903  0.13650449     0.78200
Cd1062     Cd  0.59056983  0.66467641  0.03355149     1.37500
O1063       O  0.54075195  0.67037684  0.08150538    -0.56800
O1064       O  0.62051647  0.66920436  0.13081313    -0.55600
C1065       C  0.62131450  0.63681378  0.42710250     0.78100
O1066       O  0.60827248  0.63142082  0.09893818    -0.58000
O1067       O  0.54017375  0.65242307  0.99137256    -0.56400
O1068       O  0.62570880  0.69240364  0.49597115    -0.56400
O1069       O  0.61248766  0.65958806  0.42797396    -0.55600
O1070       O  0.72806747  0.60854476  0.32078052    -0.56800
C1071       C  0.66302571  0.55662786  0.24492862     0.75800
O1072       O  0.65211254  0.64171522  0.34064801    -0.58000
C1073       C  0.74188732  0.61558491  0.27436775     0.75800
C1074       C  0.64188401  0.63418459  0.18298651     0.78200
Cd1075     Cd  0.67677087  0.60925768  0.27447218     1.37500
O1076       O  0.67191108  0.56336935  0.29842695    -0.56800
O1077       O  0.64383992  0.61031508  0.18549374    -0.55600
C1078       C  0.64051044  0.62689602  0.37754423     0.78100
O1079       O  0.65737177  0.64730668  0.22131353    -0.58000
O1080       O  0.66311353  0.57341301  0.20518389    -0.56400
O1081       O  0.72597473  0.62086504  0.22873019    -0.56400
O1082       O  0.64694832  0.60361859  0.37002668    -0.55600
C1083       C  0.60810519  0.50941253  0.19179672     0.81200
N1084       N  0.62461720  0.98962800  0.21286099    -0.77100
C1085       C  0.65006846  0.98948710  0.24614633     0.83700
N1086       N  0.66164347  0.50963748  0.24974704    -0.77000
C1087       C  0.64962697  0.53175774  0.23060052     0.83800
N1088       N  0.62289197  0.53147496  0.20212547    -0.78700
C1089       C  0.78316164  0.76962701  0.39088349     0.30800
C1090       C  0.75763803  0.78444145  0.38593972    -0.35600
C1091       C  0.73083592  0.77117693  0.38506984     0.16800
C1092       C  0.72935349  0.74503594  0.38779084     0.22600
C1093       C  0.75900584  0.73008964  0.91494865    -0.33700
C1094       C  0.78154179  0.74346796  0.39223524     0.16700
O1095       O  0.80992100  0.77828479  0.40339157    -0.25700
C1096       C  0.83131993  0.75550120  0.91861510     0.06500
C1097       C  0.81406164  0.73369730  0.91908155    -0.30600
O1098       O  0.70693631  0.73853325  0.92519614    -0.22400
C1099       C  0.69167974  0.76009330  0.92646985    -0.02400
C1100       C  0.70294799  0.77995934  0.39417348    -0.16800
H1101       H  0.75849927  0.80505440  0.38862727     0.21100
H1102       H  0.75747118  0.70989527  0.92255669     0.19500
H1103       H  0.82084427  0.71452456  0.92870930     0.19500
H1104       H  0.69606101  0.79956682  0.40105314     0.15300
C1105       C  0.97709832  0.49822434  0.14134168     0.30800
C1106       C  0.50616522  0.48373724  0.14776977    -0.35600
C1107       C  0.53300078  0.49678580  0.15145973     0.16800
C1108       C  0.53481574  0.52295198  0.15795296     0.22600
C1109       C  0.50947850  0.53807960  0.16035253    -0.33700
C1110       C  0.97930335  0.52437993  0.14107758     0.16700
O1111       O  0.94997582  0.49048333  0.15002170    -0.25700
C1112       C  0.93446474  0.51183961  0.15511707     0.06500
C1113       C  0.95149301  0.53357329  0.14924790    -0.30600
O1114       O  0.56188773  0.53093708  0.16910681    -0.22400
C1115       C  0.57758122  0.50965349  0.16967726    -0.02400
C1116       C  0.56080883  0.48783052  0.15850822    -0.16800
H1117       H  0.50503949  0.46313343  0.14672746     0.21100
H1118       H  0.51062252  0.55852602  0.16877123     0.19500
H1119       H  0.94488363  0.55324561  0.15645455     0.19500
H1120       H  0.56770929  0.46818183  0.16060571     0.15300
O1121       O  0.79107470  0.90589517  0.80574573    -0.56800
C1122       C  0.85821871  0.96199000  0.74207591     0.74600
O1123       O  0.86492985  0.87745358  0.81788856    -0.58000
C1124       C  0.77576010  0.90307384  0.75717116     0.75800
C1125       C  0.87310756  0.88624909  0.65579874     0.78200
Cd1126     Cd  0.84081779  0.90979623  0.75656826     1.37500
O1127       O  0.87088641  0.94289384  0.71770898    -0.56800
O1128       O  0.86113746  0.90784891  0.65224582    -0.55600
C1129       C  0.87553490  0.89244889  0.85925740     0.78100
O1130       O  0.86721479  0.87392598  0.70282986    -0.58000
O1131       O  0.83622605  0.95760225  0.77528139    -0.56400
O1132       O  0.79020713  0.90183111  0.70774637    -0.56400
O1133       O  0.86872711  0.91566221  0.85602330    -0.55600
O1134       O  0.98067957  0.86249412  0.55937861    -0.56800
C1135       C  0.91367073  0.80754208  0.98462000     0.75800
O1136       O  0.90362432  0.89101331  0.56871994    -0.58000
C1137       C  0.99531921  0.86393343  0.51058582     0.75800
C1138       C  0.89452112  0.88292095  0.90836345     0.78200
Cd1139     Cd  0.93029395  0.85801211  0.50825428     1.37500
O1140       O  0.93125256  0.81374282  0.02821077    -0.56800
O1141       O  0.90311891  0.86008367  0.90644920    -0.55600
C1142       C  0.89345486  0.87655332  0.60822675     0.78100
O1143       O  0.90281756  0.89663510  0.95457152    -0.58000
O1144       O  0.90397702  0.82527674  0.95302698    -0.56400
O1145       O  0.98024883  0.86395659  0.46151545    -0.56400
O1146       O  0.90210401  0.85369242  0.60501243    -0.55600
C1147       C  0.91319224  0.51110520  0.70480986     0.81200
N1148       N  0.89786000  0.53289665  0.71291655    -0.77100
C1149       C  0.87066401  0.53293413  0.73806978     0.83700
N1150       N  0.85839550  0.51061924  0.75510355    -0.77000
C1151       C  0.86965334  0.98742591  0.73102598     0.83800
N1152       N  0.89566478  0.98878753  0.70129847    -0.78700
C1153       C  0.85571465  0.75814836  0.43767625     0.81200
N1154       N  0.86830519  0.73664756  0.45707421    -0.77100
C1155       C  0.89513973  0.73711383  0.48497349     0.83700
N1156       N  0.90968534  0.75960399  0.49420303    -0.77000
C1157       C  0.89704626  0.78136454  0.47459883     0.83800
N1158       N  0.87014592  0.78048204  0.44650747    -0.78700
O1159       O  0.89080314  0.69348034  0.50115404    -0.56800
C1160       C  0.99143586  0.65695699  0.53042461     0.75800
O1161       O  0.90229335  0.62891937  0.58479383    -0.58000
C1162       C  0.90718201  0.71279826  0.50381049     0.75800
C1163       C  0.89319853  0.63983386  0.92577857     0.78200
Cd1164     Cd  0.92625765  0.66167520  0.52465058     1.37500
O1165       O  0.97620023  0.66057862  0.57839086    -0.56800
O1166       O  0.88914559  0.66193356  0.94883221    -0.55600
C1167       C  0.89080723  0.64369636  0.62512587     0.78100
O1168       O  0.91477541  0.62753689  0.94729137    -0.58000
O1169       O  0.97688300  0.65418065  0.48074521    -0.56400
O1170       O  0.93360423  0.70943324  0.52086647    -0.56400
O1171       O  0.89754366  0.66697553  0.62290740    -0.55600
O1172       O  0.78939055  0.60792654  0.81996237    -0.56800
C1173       C  0.85661638  0.55782101  0.74833749     0.75800
O1174       O  0.86042935  0.64745754  0.71581381    -0.58000
C1175       C  0.77362577  0.61271270  0.77377556     0.75800
C1176       C  0.87397008  0.62950668  0.87573060     0.78200
Cd1177     Cd  0.83908365  0.61017280  0.77033670     1.37500
O1178       O  0.83776094  0.56284490  0.78953234    -0.56800
O1179       O  0.87442308  0.60634211  0.85825920    -0.55600
C1180       C  0.87105953  0.63377347  0.67208932     0.78100
O1181       O  0.85626918  0.64350905  0.84729361    -0.58000
O1182       O  0.86505069  0.57615446  0.71759958    -0.56400
O1183       O  0.78765159  0.61723519  0.72545766    -0.56400
O1184       O  0.86420603  0.61051009  0.67082993    -0.55600
O1185       O  0.72887232  0.90621170  0.80795004    -0.56800
C1186       C  0.65951504  0.96102263  0.74910396     0.75800
O1187       O  0.65219924  0.87325905  0.70393305    -0.58000
C1188       C  0.74292546  0.90284157  0.75843191     0.75800
C1189       C  0.64446922  0.89106620  0.86497313     0.78200
Cd1190     Cd  0.67776865  0.90883984  0.76164923     1.37500
O1191       O  0.64458112  0.94173123  0.73258322    -0.56800
O1192       O  0.65138144  0.91422408  0.86146280    -0.55600
C1193       C  0.64500513  0.88644015  0.65882830     0.78100
O1194       O  0.65490155  0.87593893  0.82408236    -0.58000
O1195       O  0.68428188  0.95689175  0.77403461    -0.56400
O1196       O  0.72719536  0.90062132  0.71020084    -0.56400
O1197       O  0.65563159  0.90862702  0.65829916    -0.55600
O1198       O  0.60365401  0.82152905  0.44542025    -0.56800
C1199       C  0.52396140  0.86256613  0.50841435     0.75800
O1200       O  0.61575804  0.89123404  0.56861075    -0.58000
C1201       C  0.60400880  0.80568759  0.48729329     0.75800
C1202       C  0.62531299  0.88200134  0.91374133     0.78200
Cd1203     Cd  0.58888621  0.85817335  0.50757119     1.37500
O1204       O  0.53932887  0.86556714  0.55684995    -0.56800
O1205       O  0.61840665  0.85879773  0.91559642    -0.55600
C1206       C  0.62496453  0.87688839  0.60974606     0.78100
O1207       O  0.61489345  0.89671750  0.95572672    -0.58000
O1208       O  0.54164571  0.87565887  0.97189263    -0.56400
O1209       O  0.59475643  0.81329590  0.53954018    -0.56400
O1210       O  0.61579887  0.85417716  0.60660223    -0.55600
C1211       C  0.65751635  0.75824327  0.43201668     0.81200
N1212       N  0.64277408  0.78025583  0.44233893    -0.77100
C1213       C  0.61773922  0.78087442  0.47582486     0.83700
N1214       N  0.60717648  0.75912312  0.49953723    -0.77000
C1215       C  0.62180134  0.73679902  0.48813988     0.83800
N1216       N  0.64692975  0.73665643  0.45490201    -0.78700
O1217       O  0.58462173  0.71275270  0.03417841    -0.56800
C1218       C  0.52685429  0.65693665  0.53201268     0.75800
O1219       O  0.61475066  0.62713143  0.98032198    -0.58000
C1220       C  0.61009811  0.71573416  0.01257120     0.75800
C1221       C  0.62557279  0.64181063  0.63477244     0.78200
Cd1222     Cd  0.59207300  0.66091477  0.53166979     1.37500
O1223       O  0.54143101  0.66743291  0.57591801    -0.56800
O1224       O  0.62225306  0.66543852  0.62910307    -0.55600
C1225       C  0.62130678  0.63883002  0.93276747     0.78100
O1226       O  0.61179356  0.62745645  0.59647712    -0.58000
O1227       O  0.54204002  0.64734384  0.48848688    -0.56400
O1228       O  0.62536623  0.69595077  0.00401717    -0.56400
O1229       O  0.61063326  0.66091346  0.92879726    -0.55600
O1230       O  0.72727930  0.60919525  0.82596003    -0.56800
C1231       C  0.65728352  0.55544708  0.75947466     0.75800
O1232       O  0.65076617  0.64153153  0.84338673    -0.58000
C1233       C  0.74082924  0.61223753  0.77635990     0.75800
C1234       C  0.64426355  0.63115443  0.68294175     0.78200
Cd1235     Cd  0.67557377  0.60761352  0.78173548     1.37500
O1236       O  0.67871660  0.56004397  0.79592904    -0.56800
O1237       O  0.64853529  0.60744945  0.68406470    -0.55600
C1238       C  0.64083476  0.62792578  0.88476584     0.78100
O1239       O  0.65666488  0.64477955  0.72513016    -0.58000
O1240       O  0.64570347  0.57431614  0.73506589    -0.56400
O1241       O  0.72462463  0.61412443  0.72922387    -0.56400
O1242       O  0.64890271  0.60490473  0.88256294    -0.55600
C1243       C  0.60570487  0.50604624  0.70223648     0.81200
N1244       N  0.62036796  0.98734523  0.71183584    -0.77100
C1245       C  0.64753178  0.98634491  0.73807286     0.83700
N1246       N  0.65864754  0.50832126  0.76285752    -0.77000
C1247       C  0.64502200  0.53005817  0.74567152     0.83800
N1248       N  0.61874076  0.52869105  0.71536699    -0.78700
C1249       C  0.78841755  0.76847442  0.90590731     0.30800
C1250       C  0.76338280  0.78394972  0.90307750    -0.35600
C1251       C  0.73626232  0.77156671  0.90735280     0.16800
C1252       C  0.73398739  0.74564938  0.91351965     0.22600
C1253       C  0.75485666  0.73018776  0.39004306    -0.33700
C1254       C  0.78614375  0.74251389  0.91122801     0.16700
O1255       O  0.81579316  0.77652523  0.91059954    -0.25700
C1256       C  0.82554690  0.75740078  0.41272648     0.06500
C1257       C  0.80906400  0.73520949  0.40579445    -0.30600
O1258       O  0.70263019  0.73698128  0.39923878    -0.22400
C1259       C  0.68670671  0.75811159  0.40390257    -0.02400
C1260       C  0.70868813  0.78126633  0.91491904    -0.16800
H1261       H  0.76501925  0.80447361  0.90170615     0.21100
H1262       H  0.75386528  0.70984594  0.39599941     0.19500
H1263       H  0.81581289  0.71596969  0.41482243     0.19500
H1264       H  0.70221482  0.80108396  0.91733424     0.15300
C1265       C  0.98592239  0.49858925  0.66493046     0.30800
C1266       C  0.50455467  0.47911151  0.65720328    -0.35600
C1267       C  0.53168893  0.49167453  0.65640290     0.16800
C1268       C  0.53403722  0.51771561  0.65247836     0.22600
C1269       C  0.50900677  0.53307572  0.64762498    -0.33700
C1270       C  0.98746284  0.52479607  0.66480216     0.16700
O1271       O  0.95925663  0.49034220  0.67593631    -0.25700
C1272       C  0.94344682  0.51146001  0.68258956     0.06500
C1273       C  0.95971719  0.53348794  0.67543662    -0.30600
O1274       O  0.56098270  0.52598498  0.66385751    -0.22400
C1275       C  0.57605536  0.50503640  0.67512994    -0.02400
C1276       C  0.55908500  0.48306398  0.67009436    -0.16800
H1277       H  0.50295643  0.45893344  0.66508971     0.21100
H1278       H  0.51057535  0.55364689  0.64825531     0.19500
H1279       H  0.95266767  0.55304943  0.68252616     0.19500
H1280       H  0.56530168  0.46395723  0.68164764     0.15300
loop_ 
_geom_bond_atom_site_label_1 
_geom_bond_atom_site_label_2 
_geom_bond_distance 
_geom_bond_site_symmetry_2 
_ccdc_geom_bond_type 
O1            C4   1.263       .  A
O1           Cd6   2.498       .  S
C2           O11   1.266       .  A
C2            O7   1.260       .  A
C2           C31   1.466       .  S
O3            C9   1.265       .  A
O3           Cd6   2.475       .  S
C4           O12   1.268       .  A
C4           C68   1.488       .  S
C5           O10   1.268       .  A
C5            O8   1.265       .  A
C5           C22   1.472       .  S
Cd6          O13   2.490       .  S
Cd6          O12   2.551       .  S
Cd6          O11   2.542       .  S
Cd6           O7   2.396       .  S
Cd6          O10   2.505       .  S
Cd6           O8   2.454       .  S
C9           O13   1.264       .  A
C9           C18   1.471       .  S
O14          C17   1.265       .  A
O14         Cd19   2.533       .  S
C15          O24   1.259       .  A
C15          O20   1.266       .  A
C15         C197   1.463       .  S
O16          C22   1.265       .  A
O16         Cd19   2.462       .  S
C17          O25   1.264   1_554  A
C17         C719   1.488       .  S
C18          O23   1.268       .  A
C18          O21   1.264       .  A
Cd19         O26   2.507       .  S
Cd19         O25   2.527   1_554  S
Cd19        O184   2.397   1_554  S
Cd19        O180   2.513       .  S
Cd19        O183   2.520   1_554  S
Cd19        O181   2.451   1_554  S
O20        Cd179   2.529       .  S
O21        Cd179   2.462       .  S
C22          O26   1.265       .  A
O23        Cd179   2.493       .  S
O24        Cd179   2.395       .  S
C27         C152   1.468       .  S
C27          N28   1.348       .  A
C27         N352   1.353   1_545  A
N28          C29   1.354       .  A
C29          C53   1.465       .  S
C29          N30   1.364       .  A
N30         C351   1.366   1_545  A
C31          N32   1.356       .  A
C31         N350   1.368       .  A
N32         C347   1.348       .  A
C33         C136   1.462       .  S
C33          N34   1.348       .  A
C33          N38   1.348       .  A
N34          C35   1.355   1_556  A
C35          C42   1.464       .  S
C35          N36   1.365       .  A
N36          C37   1.366   1_554  A
C37         C175   1.459   1_556  S
C37          N38   1.357       .  A
O39          C42   1.259       .  A
O39         Cd44   2.381       .  S
C40          O49   1.266   1_554  A
C40          O45   1.267       .  A
C40         C738   1.491       .  S
O41          C47   1.264       .  A
O41         Cd44   2.470       .  S
C42          O50   1.266       .  A
C43          O48   1.271       .  A
C43          O46   1.262       .  A
C43          C56   1.472       .  S
Cd44         O51   2.512       .  S
Cd44         O50   2.547       .  S
Cd44         O49   2.536   1_554  S
Cd44         O45   2.525       .  S
Cd44        O208   2.492   1_554  S
Cd44        O206   2.455   1_554  S
O46        Cd204   2.445       .  S
C47          O51   1.266       .  A
C47          C60   1.475       .  S
O48        Cd204   2.512       .  S
O52          C55   1.265       .  A
O52         Cd57   2.516       .  S
C53          O62   1.259       .  A
C53          O58   1.266       .  A
O54          C60   1.266       .  A
O54         Cd57   2.497       .  S
C55          O63   1.267       .  A
C55         C113   1.489       .  S
C56          O61   1.266       .  A
C56          O59   1.264       .  A
Cd57         O64   2.471       .  S
Cd57         O63   2.534       .  S
Cd57         O62   2.384       .  S
Cd57         O58   2.552       .  S
Cd57         O61   2.468       .  S
Cd57         O59   2.501       .  S
C60          O64   1.266       .  A
O65          C68   1.265       .  A
O65         Cd70   2.518       .  S
C66          O75   1.268       .  A
C66          O71   1.259       .  A
C66         C125   1.468       .  S
O67          C73   1.269       .  A
O67         Cd70   2.496       .  S
C68          O76   1.265       .  A
C69          O74   1.264       .  A
C69          O72   1.265       .  A
C69          C82   1.474       .  S
Cd70         O77   2.432       .  S
Cd70         O76   2.546       .  S
Cd70         O75   2.542       .  S
Cd70         O71   2.405       .  S
Cd70         O74   2.466       .  S
Cd70         O72   2.514       .  S
C73          O77   1.265       .  A
C73          C86   1.469       .  S
O78          C81   1.261       .  A
O78         Cd83   2.404   1_556  S
C79          O84   1.264       .  A
C79         O248   1.264   1_554  A
C79         C657   1.489   1_455  S
O80          C86   1.263       .  A
O80         Cd83   2.449       .  S
C81          O89   1.267   1_556  A
C81          C93   1.456       .  S
C82          O87   1.269       .  A
C82          O85   1.264       .  A
Cd83         O90   2.512       .  S
Cd83         O89   2.503       .  S
Cd83         O84   2.539       .  S
Cd83        O248   2.526   1_554  S
Cd83        O247   2.518   1_554  S
Cd83        O245   2.454   1_554  S
O85        Cd243   2.453       .  S
C86          O90   1.266       .  A
O87        Cd243   2.517       .  S
O88         C239   1.265       .  A
O88        Cd243   2.538       .  S
C91         C139   1.461       .  S
C91          N92   1.350       .  A
C91          N96   1.350       .  A
N92          C93   1.357       .  A
C93          N94   1.363   1_556  A
N94          C95   1.363   1_554  A
C95         C260   1.463   1_556  S
C95          N96   1.355       .  A
O97         C100   1.266       .  A
O97        Cd262   2.529       .  S
C98         O107   1.266   1_554  A
C98         O103   1.265       .  A
C98         C680   1.487   1_455  S
O99         C105   1.266       .  A
O99        Cd262   2.497       .  S
C100        O108   1.261       .  A
C100        C255   1.464       .  S
C101        O106   1.263       .  A
C101        O104   1.264       .  A
C101        C114   1.471       .  S
Cd102       O107   2.526   1_554  S
Cd102       O103   2.520       .  S
Cd102       O106   2.474       .  S
Cd102       O104   2.497       .  S
Cd102       O257   2.520       .  S
Cd102       O259   2.492   1_554  S
Cd102       O269   2.445   1_554  S
Cd102       O268   2.406       .  S
C105        O109   1.265       .  A
C105        C118   1.474       .  S
O108       Cd262   2.397       .  S
O109       Cd262   2.473       .  S
O110        C113   1.264       .  A
O110       Cd115   2.529       .  S
C111        O120   1.259       .  A
C111        O116   1.267       .  A
C111        C127   1.466       .  S
O112        C118   1.264       .  A
O112       Cd115   2.483       .  S
C113        O121   1.265       .  A
C114        O119   1.268       .  A
C114        O117   1.266       .  A
Cd115       O122   2.504       .  S
Cd115       O121   2.544       .  S
Cd115       O120   2.393       .  S
Cd115       O116   2.547       .  S
Cd115       O119   2.485       .  S
Cd115       O117   2.456       .  S
C118        O122   1.264       .  A
C123        C155   1.469       .  S
C123        N128   1.349       .  A
C123        N444   1.351   1_545  A
N124        C125   1.360       .  A
N124        C443   1.353       .  A
C125        N446   1.364       .  A
N126        C127   1.366       .  A
N126        C445   1.366   1_545  A
C127        N128   1.358       .  A
C129        C134   1.382       .  A
C129        C130   1.402       .  A
C129        O135   1.316       .  A
C130        C131   1.400       .  A
C130        H141   1.086       .  S
C131        C140   1.362       .  A
C131        C132   1.381       .  A
C132        C293   1.400       .  A
C132        O298   1.315       .  A
C133        C292   1.396       .  A
C133        C294   1.395       .  A
C133        H142   1.085       .  S
C134        C293   1.399       .  A
C134        C297   1.360       .  A
O135        C296   1.329       .  A
C136        C137   1.388       .  A
C136        O295   1.330       .  A
C137        C294   1.355       .  A
C137        H143   1.084       .  S
O138        C139   1.327       .  A
O138        C292   1.312       .  A
C139        C300   1.392       .  A
C140        C299   1.390       .  A
C140        H144   1.084       .  S
C145        C150   1.381       .  A
C145        C786   1.400   1_545  A
C145        O151   1.319   1_545  A
C146        C147   1.400   1_565  A
C146        C785   1.401   1_465  A
C146        H157   1.086       .  S
C147        C156   1.359   1_545  A
C147        C148   1.382       .  A
C148        C149   1.402       .  A
C148        O154   1.319       .  A
C149        C790   1.402   1_455  A
C149        H158   1.086       .  S
C150        C153   1.358       .  A
C150        C789   1.401       .  A
O151        C152   1.329   1_565  A
C152        C153   1.392       .  A
C153        H159   1.084       .  S
O154        C155   1.331       .  A
C155        C156   1.389   1_545  A
C156        H160   1.084       .  S
O161        C164   1.264       .  A
O161       Cd166   2.516       .  S
C162        O171   1.267       .  A
C162        O167   1.260       .  A
C162        C191   1.468       .  S
O163        C169   1.263       .  A
O163       Cd166   2.468       .  S
C164        O172   1.266       .  A
C164        C228   1.488       .  S
C165        O170   1.268       .  A
C165        O168   1.264       .  A
C165        C182   1.472       .  S
Cd166       O173   2.523       .  S
Cd166       O172   2.539       .  S
Cd166       O171   2.562       .  S
Cd166       O167   2.380       .  S
Cd166       O170   2.504       .  S
Cd166       O168   2.459       .  S
C169        O173   1.265       .  A
C169        C178   1.475       .  S
O174        C177   1.266       .  A
O174       Cd179   2.538       .  S
C175        O184   1.262   1_554  A
C175        O180   1.267       .  A
O176        C182   1.264       .  A
O176       Cd179   2.465       .  S
C177        O185   1.266       .  A
C177        C879   1.492       .  S
C178        O183   1.269       .  A
C178        O181   1.263       .  A
Cd179       O186   2.503       .  S
Cd179       O185   2.532       .  S
C182        O186   1.265       .  A
C187        C312   1.462       .  S
C187        N188   1.347       .  A
C187        N512   1.349   1_545  A
N188        C189   1.354       .  A
C189        C213   1.464       .  S
C189        N190   1.366       .  A
N190        C511   1.367   1_545  A
C191        N510   1.367       .  A
C191        N192   1.354       .  A
N192        C507   1.346       .  A
C193        C296   1.465       .  S
C193        N194   1.351       .  A
C193        N198   1.350       .  A
N194        C195   1.357       .  A
C195        C202   1.455       .  S
C195        N196   1.362       .  A
N196        C197   1.363       .  A
C197        N198   1.357       .  A
O199        C202   1.262       .  A
O199       Cd204   2.412       .  S
C200        O209   1.265       .  A
C200        O205   1.265       .  A
C200        C898   1.491       .  S
O201        C207   1.265       .  A
O201       Cd204   2.468       .  S
C202        O210   1.267       .  A
C203        O208   1.268       .  A
C203        O206   1.265       .  A
C203        C216   1.472       .  S
Cd204       O211   2.524       .  S
Cd204       O210   2.487       .  S
Cd204       O209   2.540       .  S
Cd204       O205   2.533       .  S
C207        O211   1.266       .  A
C207        C220   1.477       .  S
O212        C215   1.265       .  A
O212       Cd217   2.526       .  S
C213        O222   1.259       .  A
C213        O218   1.266       .  A
O214        C220   1.270       .  A
O214       Cd217   2.519       .  S
C215        O223   1.266       .  A
C215        C273   1.489       .  S
C216        O221   1.264       .  A
C216        O219   1.265       .  A
Cd217       O224   2.450       .  S
Cd217       O223   2.537       .  S
Cd217       O222   2.377       .  S
Cd217       O218   2.552       .  S
Cd217       O221   2.475       .  S
Cd217       O219   2.507       .  S
C220        O224   1.265       .  A
O225        C228   1.267       .  A
O225       Cd230   2.514       .  S
C226        O235   1.265       .  A
C226        O231   1.261       .  A
C226        C285   1.461       .  S
O227        C233   1.265       .  A
O227       Cd230   2.500       .  S
C228        O236   1.267       .  A
C229        O234   1.266       .  A
C229        O232   1.265       .  A
C229        C242   1.475       .  S
Cd230       O237   2.485       .  S
Cd230       O236   2.529       .  S
Cd230       O235   2.527       .  S
Cd230       O231   2.391       .  S
Cd230       O234   2.470       .  S
Cd230       O232   2.508       .  S
C233        O237   1.264       .  A
C233        C246   1.475       .  S
O238        C241   1.261       .  A
O238       Cd243   2.415       .  S
C239        O244   1.264       .  A
C239        C817   1.490   1_455  S
O240        C246   1.264       .  A
O240       Cd243   2.481       .  S
C241        O249   1.267       .  A
C241        C253   1.467       .  S
C242        O247   1.270       .  A
C242        O245   1.263       .  A
Cd243       O250   2.500       .  S
Cd243       O249   2.534       .  S
Cd243       O244   2.539       .  S
C246        O250   1.265       .  A
C251        C299   1.464       .  S
C251        N252   1.352       .  A
C251        N256   1.348       .  A
N252        C253   1.359       .  A
C253        N254   1.366       .  A
N254        C255   1.365       .  A
C255        N256   1.354       .  A
O257        C260   1.265       .  A
C258        O267   1.267       .  A
C258        O263   1.266       .  A
C258        C840   1.485   1_455  S
O259        C265   1.269       .  A
C260        O268   1.260       .  A
C261        O266   1.265       .  A
C261        O264   1.265       .  A
C261        C274   1.468       .  S
Cd262       O267   2.515       .  S
Cd262       O263   2.514       .  S
Cd262       O266   2.451       .  S
Cd262       O264   2.490       .  S
C265        O269   1.265       .  A
C265        C278   1.469       .  S
O270        C273   1.264       .  A
O270       Cd275   2.527       .  S
C271        O280   1.261       .  A
C271        O276   1.267       .  A
C271        C287   1.459       .  S
O272        C278   1.264       .  A
O272       Cd275   2.455       .  S
C273        O281   1.265       .  A
C274        O279   1.269       .  A
C274        O277   1.263       .  A
Cd275       O282   2.498       .  S
Cd275       O281   2.541       .  S
Cd275       O280   2.402       .  S
Cd275       O276   2.513       .  S
Cd275       O279   2.498       .  S
Cd275       O277   2.440       .  S
C278        O282   1.265       .  A
C283        C315   1.466       .  S
C283        N604   1.351   1_545  A
C283        N288   1.350       .  A
N284        C603   1.347       .  A
N284        C285   1.352       .  A
C285        N606   1.365       .  A
N286        C605   1.363   1_545  A
N286        C287   1.364       .  A
C287        N288   1.359       .  A
C289        C294   1.381       .  A
C289        C290   1.403       .  A
C289        O295   1.318       .  A
C290        C291   1.402       .  A
C290        H301   1.086       .  S
C291        C300   1.363       .  A
C291        C292   1.382       .  A
C293        H302   1.086       .  S
C296        C297   1.390       .  A
C297        H303   1.084       .  S
O298        C299   1.329       .  A
C300        H304   1.084       .  S
C305        C310   1.383       .  A
C305        C946   1.399   1_545  A
C305        O311   1.316   1_545  A
C306        C945   1.396   1_455  A
C306        C307   1.396       .  A
C306        H317   1.086       .  S
C307        C316   1.354       .  A
C307        C308   1.382   1_565  A
C308        C309   1.404       .  A
C308        O314   1.320       .  A
C309        C950   1.403   1_455  A
C309        H318   1.086       .  S
C310        C949   1.400       .  A
C310        C313   1.357       .  A
O311        C312   1.328   1_565  A
C312        C313   1.390       .  A
C313        H319   1.084       .  S
O314        C315   1.331       .  A
C315        C316   1.388   1_545  A
C316        H320   1.084       .  S
O321        C324   1.264       .  A
O321       Cd326   2.522       .  S
C322        O331   1.262       .  A
C322        O327   1.268       .  A
C322        C351   1.466       .  S
O323        C329   1.265       .  A
O323       Cd326   2.491       .  S
C324        O332   1.265       .  A
C324        C388   1.490       .  S
C325        O330   1.269       .  A
C325        O328   1.262       .  A
C325        C342   1.469       .  S
Cd326       O333   2.523       .  S
Cd326       O332   2.552       .  S
Cd326       O331   2.433       .  S
Cd326       O327   2.516       .  S
Cd326       O330   2.516       .  S
Cd326       O328   2.435       .  S
C329        O333   1.264       .  A
C329        C338   1.478       .  S
O334        C337   1.263       .  A
O334       Cd339   2.509       .  S
C335        O344   1.260       .  A
C335        O340   1.268       .  A
C335        C517   1.463       .  S
O336        C342   1.264       .  A
O336       Cd339   2.449       .  S
C337        O345   1.266   1_554  A
C337       C1039   1.487       .  S
C338        O343   1.269       .  A
C338        O341   1.263       .  A
Cd339       O346   2.504       .  S
Cd339       O345   2.545   1_554  S
Cd339       O504   2.423   1_554  S
Cd339       O500   2.506       .  S
Cd339       O503   2.516   1_554  S
Cd339       O501   2.448   1_554  S
O340       Cd499   2.535       .  S
O341       Cd499   2.463       .  S
C342        O346   1.264       .  A
O343       Cd499   2.521       .  S
O344       Cd499   2.395       .  S
C347        C472   1.460       .  S
C347        N348   1.348       .  A
N348        C349   1.355       .  A
C349        C373   1.463       .  S
C349        N350   1.367       .  A
C351        N352   1.361       .  A
C353        C456   1.465       .  S
C353        N354   1.351       .  A
C353        N358   1.351       .  A
N354        C355   1.355       .  A
C355        C362   1.465   1_556  S
C355        N356   1.364       .  A
N356        C357   1.365       .  A
C357        C495   1.463       .  S
C357        N358   1.358       .  A
O359        C362   1.262       .  A
O359       Cd364   2.413       .  S
C360        O369   1.266   1_554  A
C360        O365   1.267       .  A
C360       C1058   1.488       .  S
O361        C367   1.264       .  A
O361       Cd364   2.472       .  S
C362        O370   1.266       .  A
C363        O368   1.268       .  A
C363        O366   1.265       .  A
C363        C376   1.478       .  S
Cd364       O371   2.523       .  S
Cd364       O370   2.524       .  S
Cd364       O369   2.526   1_554  S
Cd364       O365   2.522       .  S
Cd364       O528   2.495   1_554  S
Cd364       O526   2.471   1_554  S
O366       Cd524   2.468       .  S
C367        O371   1.266       .  A
C367        C380   1.478       .  S
O368       Cd524   2.519       .  S
O372        C375   1.264       .  A
O372       Cd377   2.538       .  S
C373        O382   1.261       .  A
C373        O378   1.267       .  A
O374        C380   1.269       .  A
O374       Cd377   2.526       .  S
C375        O383   1.265       .  A
C375        C433   1.495       .  S
C376        O381   1.265       .  A
C376        O379   1.266       .  A
Cd377       O384   2.465       .  S
Cd377       O383   2.558       .  S
Cd377       O382   2.392       .  S
Cd377       O378   2.535       .  S
Cd377       O381   2.472       .  S
Cd377       O379   2.522       .  S
C380        O384   1.264       .  A
O385        C388   1.265       .  A
O385       Cd390   2.520       .  S
C386        O395   1.266       .  A
C386        O391   1.260       .  A
C386        C445   1.470       .  S
O387        C393   1.268       .  A
O387       Cd390   2.502       .  S
C388        O396   1.267       .  A
C389        O394   1.263       .  A
C389        O392   1.265       .  A
C389        C402   1.475       .  S
Cd390       O397   2.467       .  S
Cd390       O396   2.545       .  S
Cd390       O395   2.551       .  S
Cd390       O391   2.407       .  S
Cd390       O394   2.474       .  S
Cd390       O392   2.510       .  S
C393        O397   1.264       .  A
C393        C406   1.474       .  S
O398        C401   1.262       .  A
O398       Cd403   2.420   1_556  S
C399        O568   1.265   1_554  A
C399        O404   1.264       .  A
C399        C977   1.488   1_455  S
O400        C406   1.265       .  A
O400       Cd403   2.478       .  S
C401        O409   1.267   1_556  A
C401        C413   1.461       .  S
C402        O407   1.267       .  A
C402        O405   1.265       .  A
Cd403       O410   2.498       .  S
Cd403       O409   2.508       .  S
Cd403       O568   2.545   1_554  S
Cd403       O404   2.528       .  S
Cd403       O567   2.502   1_554  S
Cd403       O565   2.464   1_554  S
O405       Cd563   2.466       .  S
C406        O410   1.265       .  A
O407       Cd563   2.508       .  S
O408        C559   1.264       .  A
O408       Cd563   2.524       .  S
C411        C459   1.467       .  S
C411        N412   1.352       .  A
C411        N416   1.350       .  A
N412        C413   1.358       .  A
C413        N414   1.363   1_556  A
N414        C415   1.363   1_554  A
C415        C580   1.463   1_556  S
C415        N416   1.357       .  A
O417        C420   1.258       .  A
O417       Cd582   2.398       .  S
C418        O427   1.267   1_554  A
C418        O423   1.266       .  A
C418       C1000   1.487   1_455  S
O419        C425   1.267       .  A
O419       Cd582   2.505       .  S
C420        O428   1.268       .  A
C420        C575   1.471       .  S
C421        O426   1.264       .  A
C421        O424   1.265       .  A
C421        C434   1.467       .  S
Cd422       O577   2.520       .  S
Cd422       O579   2.498   1_554  S
Cd422       O589   2.462   1_554  S
Cd422       O588   2.397       .  S
Cd422       O427   2.522   1_554  S
Cd422       O423   2.511       .  S
Cd422       O426   2.447       .  S
Cd422       O424   2.491       .  S
C425        O429   1.265       .  A
C425        C438   1.476       .  S
O428       Cd582   2.565       .  S
O429       Cd582   2.467       .  S
O430        C433   1.265       .  A
O430       Cd435   2.538       .  S
C431        O440   1.259       .  A
C431        O436   1.267       .  A
C431        C447   1.463       .  S
O432        C438   1.263       .  A
O432       Cd435   2.476       .  S
C433        O441   1.265       .  A
C434        O439   1.269       .  A
C434        O437   1.264       .  A
Cd435       O442   2.518       .  S
Cd435       O441   2.556       .  S
Cd435       O440   2.398       .  S
Cd435       O436   2.534       .  S
Cd435       O439   2.494       .  S
Cd435       O437   2.436       .  S
C438        O442   1.266       .  A
C443        C475   1.469       .  S
C443        N448   1.350       .  A
N444        C445   1.358       .  A
N446        C447   1.363       .  A
C447        N448   1.357       .  A
C449        C454   1.381       .  A
C449        C450   1.403       .  A
C449        O455   1.320       .  A
C450        C451   1.403       .  A
C450        H461   1.086       .  S
C451        C460   1.361       .  A
C451        C452   1.382       .  A
C452        C613   1.397       .  A
C452        O618   1.315       .  A
C453        C612   1.400       .  A
C453        C614   1.400       .  A
C453        H462   1.085       .  S
C454        C613   1.397       .  A
C454        C617   1.354       .  A
O455        C616   1.331       .  A
C456        C457   1.390       .  A
C456        O615   1.330       .  A
C457        C614   1.358       .  A
C457        H463   1.084       .  S
O458        C612   1.317       .  A
O458        C459   1.330       .  A
C459        C620   1.390       .  A
C460        C619   1.392       .  A
C460        H464   1.084       .  S
C465        C470   1.382       .  A
C465       C1106   1.399       .  A
C465        O471   1.315       .  A
C466       C1105   1.400   1_455  A
C466        C467   1.399       .  A
C466        H477   1.086       .  S
C467        C476   1.360       .  A
C467        C468   1.381       .  A
C468        C469   1.404       .  A
C468        O474   1.318       .  A
C469       C1110   1.402   1_455  A
C469        H478   1.086       .  S
C470       C1109   1.399       .  A
C470        C473   1.357       .  A
O471        C472   1.328       .  A
C472        C473   1.389       .  A
C473        H479   1.084       .  S
O474        C475   1.331       .  A
C475        C476   1.389       .  A
C476        H480   1.084       .  S
O481        C484   1.265       .  A
O481       Cd486   2.516       .  S
C482        O491   1.266       .  A
C482        O487   1.260       .  A
C482        C511   1.465       .  S
O483        C489   1.263       .  A
O483       Cd486   2.446       .  S
C484        O492   1.267       .  A
C484        C548   1.489       .  S
C485        O490   1.268       .  A
C485        O488   1.266       .  A
C485        C502   1.479       .  S
Cd486       O493   2.519       .  S
Cd486       O492   2.541       .  S
Cd486       O491   2.539       .  S
Cd486       O487   2.398       .  S
Cd486       O490   2.512       .  S
Cd486       O488   2.475       .  S
C489        O493   1.266       .  A
C489        C498   1.472       .  S
O494        C497   1.265       .  A
O494       Cd499   2.533       .  S
C495        O504   1.263       .  A
C495        O500   1.266   1_556  A
O496        C502   1.264       .  A
O496       Cd499   2.480       .  S
C497        O505   1.263       .  A
C497       C1199   1.484       .  S
C498        O503   1.267       .  A
C498        O501   1.265       .  A
Cd499       O506   2.527       .  S
Cd499       O505   2.513       .  S
C502        O506   1.266       .  A
C507        C632   1.463       .  S
C507        N508   1.351       .  A
N508        C509   1.359       .  A
C509        C533   1.466       .  S
C509        N510   1.369       .  A
C511        N512   1.358       .  A
C513        C616   1.465       .  S
C513        N514   1.350       .  A
C513        N518   1.350       .  A
N514        C515   1.355       .  A
C515        C522   1.464       .  S
C515        N516   1.364       .  A
N516        C517   1.365       .  A
C517        N518   1.359       .  A
O519        C522   1.260       .  A
O519       Cd524   2.398       .  S
C520        O529   1.268       .  A
C520        O525   1.265       .  A
C520       C1218   1.490       .  S
O521        C527   1.264       .  A
O521       Cd524   2.454       .  S
C522        O530   1.266       .  A
C523        O528   1.265       .  A
C523        O526   1.264       .  A
C523        C536   1.472       .  S
Cd524       O531   2.509       .  S
Cd524       O530   2.530       .  S
Cd524       O529   2.544       .  S
Cd524       O525   2.514       .  S
C527        O531   1.265       .  A
C527        C540   1.472       .  S
O532        C535   1.263       .  A
O532       Cd537   2.510       .  S
C533        O542   1.262       .  A
C533        O538   1.267       .  A
O534        C540   1.269       .  A
O534       Cd537   2.519       .  S
C535        O543   1.265       .  A
C535        C593   1.487       .  S
C536        O541   1.264       .  A
C536        O539   1.265       .  A
Cd537       O544   2.443       .  S
Cd537       O543   2.549       .  S
Cd537       O542   2.423       .  S
Cd537       O538   2.523       .  S
Cd537       O541   2.479       .  S
Cd537       O539   2.501       .  S
C540        O544   1.263       .  A
O545        C548   1.265       .  A
O545       Cd550   2.520       .  S
C546        O555   1.267       .  A
C546        O551   1.260       .  A
C546        C605   1.466       .  S
O547        C553   1.268       .  A
O547       Cd550   2.502       .  S
C548        O556   1.266       .  A
C549        O554   1.265       .  A
C549        O552   1.264       .  A
C549        C562   1.474       .  S
Cd550       O557   2.449       .  S
Cd550       O556   2.541       .  S
Cd550       O555   2.540       .  S
Cd550       O551   2.398       .  S
Cd550       O554   2.483       .  S
Cd550       O552   2.501       .  S
C553        O557   1.264       .  A
C553        C566   1.471       .  S
O558        C561   1.261       .  A
O558       Cd563   2.404       .  S
C559        O564   1.264       .  A
C559       C1137   1.487   1_455  S
O560        C566   1.265       .  A
O560       Cd563   2.455       .  S
C561        O569   1.266       .  A
C561        C573   1.462       .  S
C562        O567   1.268       .  A
C562        O565   1.264       .  A
Cd563       O570   2.500       .  S
Cd563       O569   2.519       .  S
Cd563       O564   2.536       .  S
C566        O570   1.266       .  A
C571        C619   1.466       .  S
C571        N572   1.349       .  A
C571        N576   1.351       .  A
N572        C573   1.356       .  A
C573        N574   1.366       .  A
N574        C575   1.365       .  A
C575        N576   1.359       .  A
O577        C580   1.267       .  A
C578        O587   1.265       .  A
C578        O583   1.266       .  A
C578       C1160   1.492   1_455  S
O579        C585   1.267       .  A
C580        O588   1.260       .  A
C581        O586   1.265       .  A
C581        O584   1.266       .  A
C581        C594   1.476       .  S
Cd582       O587   2.530       .  S
Cd582       O583   2.547       .  S
Cd582       O586   2.475       .  S
Cd582       O584   2.510       .  S
C585        O589   1.263       .  A
C585        C598   1.471       .  S
O590        C593   1.263       .  A
O590       Cd595   2.510       .  S
C591        O600   1.263       .  A
C591        O596   1.267       .  A
C591        C607   1.459       .  S
O592        C598   1.264       .  A
O592       Cd595   2.469       .  S
C593        O601   1.265       .  A
C594        O599   1.268       .  A
C594        O597   1.264       .  A
Cd595       O602   2.499       .  S
Cd595       O601   2.543       .  S
Cd595       O600   2.408       .  S
Cd595       O596   2.509       .  S
Cd595       O599   2.509       .  S
Cd595       O597   2.469       .  S
C598        O602   1.264       .  A
C603        C635   1.459       .  S
C603        N608   1.348       .  A
N604        C605   1.355       .  A
N606        C607   1.367       .  A
C607        N608   1.357       .  A
C609        C614   1.382       .  A
C609        C610   1.402       .  A
C609        O615   1.317       .  A
C610        C611   1.401       .  A
C610        H621   1.085       .  S
C611        C620   1.360       .  A
C611        C612   1.381       .  A
C613        H622   1.086       .  S
C616        C617   1.388       .  A
C617        H623   1.084       .  S
O618        C619   1.328       .  A
C620        H624   1.084       .  S
C625        C630   1.382       .  A
C625       C1266   1.400       .  A
C625        O631   1.315       .  A
C626       C1265   1.397   1_455  A
C626        C627   1.396       .  A
C626        H637   1.086       .  S
C627        C636   1.353       .  A
C627        C628   1.382       .  A
C628        C629   1.401       .  A
C628        O634   1.317       .  A
C629       C1270   1.401   1_455  A
C629        H638   1.086       .  S
C630       C1269   1.400       .  A
C630        C633   1.361       .  A
O631        C632   1.329       .  A
C632        C633   1.389       .  A
C633        H639   1.084       .  S
O634        C635   1.329       .  A
C635        C636   1.388       .  A
C636        H640   1.084       .  S
O641        C644   1.263       .  A
O641       Cd646   2.513       .  S
C642        O651   1.258       .  A
C642        O647   1.268       .  A
C642        C671   1.466       .  S
O643        C649   1.262       .  A
O643       Cd646   2.466       .  S
C644        O652   1.266       .  A
C644        C708   1.486       .  S
C645        O650   1.270       .  A
C645        O648   1.263       .  A
C645        C662   1.469       .  S
Cd646       O653   2.517       .  S
Cd646       O652   2.538       .  S
Cd646       O651   2.400       .  S
Cd646       O647   2.551       .  S
Cd646       O650   2.503       .  S
Cd646       O648   2.436       .  S
C649        O653   1.266       .  A
C649        C658   1.474       .  S
O654        C657   1.266       .  A
O654       Cd659   2.538       .  S
C655        O664   1.261       .  A
C655        O660   1.267       .  A
C655        C837   1.464       .  S
O656        C662   1.265       .  A
O656       Cd659   2.456       .  S
C657        O665   1.265   1_554  A
C658        O663   1.267       .  A
C658        O661   1.265       .  A
Cd659       O666   2.497       .  S
Cd659       O665   2.524   1_554  S
Cd659       O824   2.388   1_554  S
Cd659       O820   2.526       .  S
Cd659       O823   2.493   1_554  S
Cd659       O821   2.461   1_554  S
O660       Cd819   2.526       .  S
O661       Cd819   2.463       .  S
C662        O666   1.264       .  A
O663       Cd819   2.506       .  S
O664       Cd819   2.401       .  S
C667        C792   1.469       .  S
C667        N668   1.351       .  A
C667        N992   1.352   1_545  A
N668        C669   1.356       .  A
C669        C693   1.463       .  S
C669        N670   1.365       .  A
N670        C991   1.366   1_545  A
C671        N990   1.363       .  A
C671        N672   1.357       .  A
N672        C987   1.350       .  A
C673        C776   1.467       .  S
C673        N674   1.351       .  A
C673        N678   1.351       .  A
N674        C675   1.357       .  A
C675        C682   1.458   1_556  S
C675        N676   1.362   1_556  A
N676        C677   1.363   1_554  A
C677        C815   1.463   1_556  S
C677        N678   1.358       .  A
O679        C682   1.261   1_556  A
O679       Cd684   2.412   1_556  S
C680        O689   1.265   1_554  A
C680        O685   1.265       .  A
O681        C687   1.265       .  A
O681       Cd684   2.475       .  S
C682        O690   1.267       .  A
C683        O688   1.268       .  A
C683        O686   1.260       .  A
C683        C696   1.470       .  S
Cd684       O691   2.518       .  S
Cd684       O690   2.504       .  S
Cd684       O689   2.530   1_554  S
Cd684       O685   2.529       .  S
Cd684       O848   2.524   1_554  S
Cd684       O846   2.450   1_554  S
O686       Cd844   2.446       .  S
C687        O691   1.264       .  A
C687        C700   1.478       .  S
O688       Cd844   2.514       .  S
O692        C695   1.264       .  A
O692       Cd697   2.523       .  S
C693        O702   1.263       .  A
C693        O698   1.268       .  A
O694        C700   1.269       .  A
O694       Cd697   2.537       .  S
C695        O703   1.266       .  A
C695        C753   1.493       .  S
C696        O701   1.265       .  A
C696        O699   1.264       .  A
Cd697       O704   2.464       .  S
Cd697       O703   2.558       .  S
Cd697       O702   2.410       .  S
Cd697       O698   2.517       .  S
Cd697       O701   2.464       .  S
Cd697       O699   2.502       .  S
C700        O704   1.261       .  A
O705        C708   1.266       .  A
O705       Cd710   2.518       .  S
C706        O715   1.266       .  A
C706        O711   1.260       .  A
C706        C765   1.467       .  S
O707        C713   1.267       .  A
O707       Cd710   2.506       .  S
C708        O716   1.265       .  A
C709        O714   1.265       .  A
C709        O712   1.266       .  A
C709        C722   1.476       .  S
Cd710       O717   2.442       .  S
Cd710       O716   2.527       .  S
Cd710       O715   2.538       .  S
Cd710       O711   2.401       .  S
Cd710       O714   2.467       .  S
Cd710       O712   2.514       .  S
C713        O717   1.264       .  A
C713        C726   1.470       .  S
O718        C721   1.259   1_556  A
O718       Cd723   2.385   1_556  S
C719        O888   1.266   1_554  A
C719        O724   1.264       .  A
O720        C726   1.263       .  A
O720       Cd723   2.445       .  S
C721        O729   1.266       .  A
C721        C733   1.467   1_554  S
C722        O727   1.269       .  A
C722        O725   1.264       .  A
Cd723       O730   2.513       .  S
Cd723       O729   2.555       .  S
Cd723       O888   2.535   1_554  S
Cd723       O724   2.529       .  S
Cd723       O887   2.510   1_554  S
Cd723       O885   2.490   1_554  S
O725       Cd883   2.454       .  S
C726        O730   1.266       .  A
O727       Cd883   2.516       .  S
O728        C879   1.265       .  A
O728       Cd883   2.540       .  S
C731        C779   1.466       .  S
C731        N732   1.348       .  A
C731        N736   1.349       .  A
N732        C733   1.355       .  A
C733        N734   1.366   1_556  A
N734        C735   1.368       .  A
C735        C900   1.467       .  S
C735        N736   1.360   1_554  A
O737        C740   1.266       .  A
O737       Cd902   2.541       .  S
C738        O747   1.267   1_554  A
C738        O743   1.265       .  A
O739        C745   1.266       .  A
O739       Cd902   2.509       .  S
C740        O748   1.261       .  A
C740        C895   1.465       .  S
C741        O746   1.265       .  A
C741        O744   1.266       .  A
C741        C754   1.477       .  S
Cd742       O897   2.386       .  S
Cd742       O899   2.518   1_554  S
Cd742       O909   2.456   1_554  S
Cd742       O908   2.551       .  S
Cd742       O747   2.547   1_554  S
Cd742       O743   2.521       .  S
Cd742       O746   2.473       .  S
Cd742       O744   2.510       .  S
C745        O749   1.265       .  A
C745        C758   1.478       .  S
O748       Cd902   2.392       .  S
O749       Cd902   2.484       .  S
O750        C753   1.264       .  A
O750       Cd755   2.528       .  S
C751        O760   1.258       .  A
C751        O756   1.267       .  A
C751        C767   1.464       .  S
O752        C758   1.265       .  A
O752       Cd755   2.486       .  S
C753        O761   1.266       .  A
C754        O759   1.269       .  A
C754        O757   1.265       .  A
Cd755       O762   2.513       .  S
Cd755       O761   2.564       .  S
Cd755       O760   2.380       .  S
Cd755       O756   2.558       .  S
Cd755       O759   2.517       .  S
Cd755       O757   2.466       .  S
C758        O762   1.265       .  A
C763        C795   1.466       .  S
C763       N1084   1.351   1_545  A
C763        N768   1.347       .  A
N764       C1083   1.350       .  A
N764        C765   1.355       .  A
C765       N1086   1.365       .  A
N766       C1085   1.365   1_545  A
N766        C767   1.365       .  A
C767        N768   1.356       .  A
C769        C774   1.382       .  A
C769        C770   1.402       .  A
C769        O775   1.316       .  A
C770        C771   1.400       .  A
C770        H781   1.085       .  S
C771        C780   1.363       .  A
C771        C772   1.382       .  A
C772        C933   1.399       .  A
C772        O938   1.313       .  A
C773        C932   1.402       .  A
C773        C934   1.402       .  A
C773        H782   1.086       .  S
C774        C933   1.398       .  A
C774        C937   1.358       .  A
O775        C936   1.329       .  A
C776        C777   1.391       .  A
C776        O935   1.329       .  A
C777        C934   1.361       .  A
C777        H783   1.084       .  S
O778        C932   1.319       .  A
O778        C779   1.330       .  A
C779        C940   1.389       .  A
C780        C939   1.390       .  A
C780        H784   1.084       .  S
C785        C790   1.382       .  A
C785        O791   1.318   1_545  A
C786        C787   1.400       .  A
C786        H797   1.086       .  S
C787        C796   1.359       .  A
C787        C788   1.382   1_565  A
C788        C789   1.401       .  A
C788        O794   1.317       .  A
C789        H798   1.086       .  S
C790        C793   1.361       .  A
O791        C792   1.329   1_565  A
C792        C793   1.391       .  A
C793        H799   1.084       .  S
O794        C795   1.330       .  A
C795        C796   1.389   1_545  A
C796        H800   1.084       .  S
O801        C804   1.266       .  A
O801       Cd806   2.530       .  S
C802        O811   1.266       .  A
C802        O807   1.261       .  A
C802        C831   1.470       .  S
O803        C809   1.264       .  A
O803       Cd806   2.479       .  S
C804        O812   1.267       .  A
C804        C868   1.496       .  S
C805        O810   1.267       .  A
C805        O808   1.264       .  A
C805        C822   1.474       .  S
Cd806       O813   2.505       .  S
Cd806       O812   2.549       .  S
Cd806       O811   2.547       .  S
Cd806       O807   2.417       .  S
Cd806       O810   2.508       .  S
Cd806       O808   2.462       .  S
C809        O813   1.265       .  A
C809        C818   1.473       .  S
O814        C817   1.265       .  A
O814       Cd819   2.537       .  S
C815        O824   1.259   1_554  A
C815        O820   1.267       .  A
O816        C822   1.265       .  A
O816       Cd819   2.469       .  S
C817        O825   1.265       .  A
C818        O823   1.268       .  A
C818        O821   1.265       .  A
Cd819       O826   2.507       .  S
Cd819       O825   2.533       .  S
C822        O826   1.265       .  A
C827        C952   1.464       .  S
C827        N828   1.350       .  A
C827       N1152   1.350   1_545  A
N828        C829   1.357       .  A
C829        C853   1.458       .  S
C829        N830   1.365       .  A
N830       C1151   1.365   1_545  A
C831       N1150   1.368       .  A
C831        N832   1.357       .  A
N832       C1147   1.349       .  A
C833        C936   1.464       .  S
C833        N834   1.349       .  A
C833        N838   1.349       .  A
N834        C835   1.356       .  A
C835        C842   1.463       .  S
C835        N836   1.364       .  A
N836        C837   1.366       .  A
C837        N838   1.358       .  A
O839        C842   1.260       .  A
O839       Cd844   2.391       .  S
C840        O849   1.266       .  A
C840        O845   1.268       .  A
O841        C847   1.264       .  A
O841       Cd844   2.469       .  S
C842        O850   1.267       .  A
C843        O848   1.271       .  A
C843        O846   1.262       .  A
C843        C856   1.474       .  S
Cd844       O851   2.519       .  S
Cd844       O850   2.543       .  S
Cd844       O849   2.508       .  S
Cd844       O845   2.515       .  S
C847        O851   1.266       .  A
C847        C860   1.477       .  S
O852        C855   1.263       .  A
O852       Cd857   2.505       .  S
C853        O862   1.263       .  A
C853        O858   1.268       .  A
O854        C860   1.268       .  A
O854       Cd857   2.532       .  S
C855        O863   1.266       .  A
C855        C913   1.485       .  S
C856        O861   1.265       .  A
C856        O859   1.264       .  A
Cd857       O864   2.468       .  S
Cd857       O863   2.536       .  S
Cd857       O862   2.413       .  S
Cd857       O858   2.502       .  S
Cd857       O861   2.467       .  S
Cd857       O859   2.508       .  S
C860        O864   1.262       .  A
O865        C868   1.266       .  A
O865       Cd870   2.532       .  S
C866        O875   1.266       .  A
C866        O871   1.258       .  A
C866        C925   1.465       .  S
O867        C873   1.267       .  A
O867       Cd870   2.480       .  S
C868        O876   1.268       .  A
C869        O874   1.265       .  A
C869        O872   1.266       .  A
C869        C882   1.480       .  S
Cd870       O877   2.475       .  S
Cd870       O876   2.558       .  S
Cd870       O875   2.549       .  S
Cd870       O871   2.387       .  S
Cd870       O874   2.489       .  S
Cd870       O872   2.505       .  S
C873        O877   1.266       .  A
C873        C886   1.472       .  S
O878        C881   1.262       .  A
O878       Cd883   2.418       .  S
C879        O884   1.264       .  A
O880        C886   1.265       .  A
O880       Cd883   2.477       .  S
C881        O889   1.267       .  A
C881        C893   1.463       .  S
C882        O887   1.267       .  A
C882        O885   1.266       .  A
Cd883       O890   2.483       .  S
Cd883       O889   2.515       .  S
Cd883       O884   2.549       .  S
C886        O890   1.265       .  A
C891        C939   1.463       .  S
C891        N892   1.352       .  A
C891        N896   1.347       .  A
N892        C893   1.360       .  A
C893        N894   1.367       .  A
N894        C895   1.364       .  A
C895        N896   1.353       .  A
O897        C900   1.259       .  A
C898        O907   1.268       .  A
C898        O903   1.266       .  A
O899        C905   1.268       .  A
C900        O908   1.267       .  A
C901        O906   1.262       .  A
C901        O904   1.266       .  A
C901        C914   1.468       .  S
Cd902       O907   2.534       .  S
Cd902       O903   2.523       .  S
Cd902       O906   2.436       .  S
Cd902       O904   2.513       .  S
C905        O909   1.264       .  A
C905        C918   1.475       .  S
O910        C913   1.263       .  A
O910       Cd915   2.513       .  S
C911        O920   1.263       .  A
C911        O916   1.266       .  A
C911        C927   1.463       .  S
O912        C918   1.263       .  A
O912       Cd915   2.462       .  S
C913        O921   1.264       .  A
C914        O919   1.268       .  A
C914        O917   1.265       .  A
Cd915       O922   2.518       .  S
Cd915       O921   2.539       .  S
Cd915       O920   2.431       .  S
Cd915       O916   2.510       .  S
Cd915       O919   2.503       .  S
Cd915       O917   2.432       .  S
C918        O922   1.265       .  A
C923        C955   1.466       .  S
C923       N1244   1.350   1_545  A
C923        N928   1.351       .  A
N924       C1243   1.349       .  A
N924        C925   1.356       .  A
C925       N1246   1.365       .  A
N926       C1245   1.365   1_545  A
N926        C927   1.366       .  A
C927        N928   1.358       .  A
C929        C934   1.382       .  A
C929        C930   1.399       .  A
C929        O935   1.316       .  A
C930        C931   1.399       .  A
C930        H941   1.086       .  S
C931        C940   1.356       .  A
C931        C932   1.382       .  A
C933        H942   1.086       .  S
C936        C937   1.389       .  A
C937        H943   1.084       .  S
O938        C939   1.328       .  A
C940        H944   1.084       .  S
C945        C950   1.382   1_565  A
C945        O951   1.313       .  A
C946        C947   1.399       .  A
C946        H957   1.086       .  S
C947        C956   1.357       .  A
C947        C948   1.381   1_565  A
C948        C949   1.400       .  A
C948        O954   1.318       .  A
C949        H958   1.086       .  S
C950        C953   1.363       .  A
O951        C952   1.327   1_565  A
C952        C953   1.392       .  A
C953        H959   1.084       .  S
O954        C955   1.330       .  A
C955        C956   1.390   1_545  A
C956        H960   1.084       .  S
O961        C964   1.264       .  A
O961       Cd966   2.524       .  S
C962        O971   1.266       .  A
C962        O967   1.259       .  A
C962        C991   1.470       .  S
O963        C969   1.262       .  A
O963       Cd966   2.468       .  S
C964        O972   1.266       .  A
C964       C1028   1.490       .  S
C965        O970   1.270       .  A
C965        O968   1.265       .  A
C965        C982   1.475       .  S
Cd966       O973   2.500       .  S
Cd966       O972   2.540       .  S
Cd966       O971   2.545       .  S
Cd966       O967   2.414       .  S
Cd966       O970   2.510       .  S
Cd966       O968   2.448       .  S
C969        O973   1.263       .  A
C969        C978   1.468       .  S
O974        C977   1.264       .  A
O974       Cd979   2.517       .  S
C975        O984   1.259       .  A
C975        O980   1.267       .  A
C975       C1157   1.464       .  S
O976        C982   1.265       .  A
O976       Cd979   2.474       .  S
C977        O985   1.265   1_554  A
C978        O983   1.268       .  A
C978        O981   1.266       .  A
Cd979       O986   2.522       .  S
Cd979       O985   2.535   1_554  S
Cd979      O1144   2.399   1_554  S
Cd979      O1140   2.533       .  S
Cd979      O1143   2.511   1_554  S
Cd979      O1141   2.451   1_554  S
O980      Cd1139   2.523       .  S
O981      Cd1139   2.446       .  S
C982        O986   1.265       .  A
O983      Cd1139   2.479       .  S
O984      Cd1139   2.414       .  S
C987       C1112   1.467       .  S
C987        N988   1.350       .  A
N988        C989   1.357       .  A
C989       C1013   1.457       .  S
C989        N990   1.365       .  A
C991        N992   1.360       .  A
C993       C1096   1.465       .  S
C993        N994   1.352       .  A
C993        N998   1.348       .  A
N994        C995   1.358       .  A
C995       C1002   1.458       .  S
C995        N996   1.365       .  A
N996        C997   1.364       .  A
C997       C1135   1.463       .  S
C997        N998   1.355       .  A
O999       C1002   1.263       .  A
O999      Cd1004   2.423   1_556  S
C1000      O1009   1.266   1_554  A
C1000      O1005   1.265       .  A
O1001      C1007   1.266       .  A
O1001     Cd1004   2.490       .  S
C1002      O1010   1.267   1_556  A
C1003      O1008   1.268       .  A
C1003      O1006   1.263       .  A
C1003      C1016   1.471       .  S
Cd1004     O1011   2.514       .  S
Cd1004     O1010   2.492       .  S
Cd1004     O1009   2.533   1_554  S
Cd1004     O1005   2.522       .  S
Cd1004     O1168   2.515   1_554  S
Cd1004     O1166   2.464   1_554  S
O1006     Cd1164   2.452       .  S
C1007      O1011   1.264       .  A
C1007      C1020   1.479       .  S
O1008     Cd1164   2.503       .  S
O1012      C1015   1.263       .  A
O1012     Cd1017   2.520       .  S
C1013      O1022   1.263       .  A
C1013      O1018   1.266       .  A
O1014      C1020   1.271       .  A
O1014     Cd1017   2.521       .  S
C1015      O1023   1.267       .  A
C1015      C1073   1.490       .  S
C1016      O1021   1.264       .  A
C1016      O1019   1.264       .  A
Cd1017     O1024   2.466       .  S
Cd1017     O1023   2.550       .  S
Cd1017     O1022   2.406       .  S
Cd1017     O1018   2.497       .  S
Cd1017     O1021   2.466       .  S
Cd1017     O1019   2.505       .  S
C1020      O1024   1.264       .  A
O1025      C1028   1.264       .  A
O1025     Cd1030   2.530       .  S
C1026      O1035   1.268       .  A
C1026      O1031   1.260       .  A
C1026      C1085   1.463       .  S
O1027      C1033   1.270       .  A
O1027     Cd1030   2.515       .  S
C1028      O1036   1.265       .  A
C1029      O1034   1.265       .  A
C1029      O1032   1.263       .  A
C1029      C1042   1.475       .  S
Cd1030     O1037   2.456       .  S
Cd1030     O1036   2.542       .  S
Cd1030     O1035   2.532       .  S
Cd1030     O1031   2.393       .  S
Cd1030     O1034   2.483       .  S
Cd1030     O1032   2.510       .  S
C1033      O1037   1.262       .  A
C1033      C1046   1.474       .  S
O1038      C1041   1.262       .  A
O1038     Cd1043   2.415   1_556  S
C1039      O1208   1.265   1_554  A
C1039      O1044   1.262       .  A
O1040      C1046   1.266       .  A
O1040     Cd1043   2.489       .  S
C1041      O1049   1.267   1_556  A
C1041      C1053   1.461       .  S
C1042      O1047   1.270       .  A
C1042      O1045   1.262       .  A
Cd1043     O1050   2.502       .  S
Cd1043     O1049   2.502       .  S
Cd1043     O1208   2.550   1_554  S
Cd1043     O1044   2.516       .  S
Cd1043     O1207   2.508   1_554  S
Cd1043     O1205   2.467   1_554  S
O1045     Cd1203   2.454       .  S
C1046      O1050   1.262       .  A
O1047     Cd1203   2.519       .  S
O1048      C1199   1.264       .  A
O1048     Cd1203   2.519       .  S
C1051      C1099   1.464       .  S
C1051      N1052   1.352       .  A
C1051      N1056   1.348       .  A
N1052      C1053   1.359       .  A
C1053      N1054   1.365   1_556  A
N1054      C1055   1.364   1_554  A
C1055      C1220   1.466   1_556  S
C1055      N1056   1.354       .  A
O1057      C1060   1.267       .  A
O1057     Cd1222   2.549       .  S
C1058      O1067   1.268   1_554  A
C1058      O1063   1.265       .  A
O1059      C1065   1.268       .  A
O1059     Cd1222   2.513       .  S
C1060      O1068   1.260       .  A
C1060      C1215   1.471       .  S
C1061      O1066   1.263       .  A
C1061      O1064   1.266       .  A
C1061      C1074   1.469       .  S
Cd1062     O1217   2.546       .  S
Cd1062     O1219   2.508   1_554  S
Cd1062     O1229   2.467   1_554  S
Cd1062     O1228   2.395       .  S
Cd1062     O1067   2.530   1_554  S
Cd1062     O1063   2.514       .  S
Cd1062     O1066   2.436       .  S
Cd1062     O1064   2.509       .  S
C1065      O1069   1.264       .  A
C1065      C1078   1.473       .  S
O1068     Cd1222   2.413       .  S
O1069     Cd1222   2.450       .  S
O1070      C1073   1.265       .  A
O1070     Cd1075   2.530       .  S
C1071      O1080   1.264       .  A
C1071      O1076   1.266       .  A
C1071      C1087   1.464       .  S
O1072      C1078   1.263       .  A
O1072     Cd1075   2.466       .  S
C1073      O1081   1.264       .  A
C1074      O1079   1.268       .  A
C1074      O1077   1.264       .  A
Cd1075     O1082   2.524       .  S
Cd1075     O1081   2.541       .  S
Cd1075     O1080   2.443       .  S
Cd1075     O1076   2.504       .  S
Cd1075     O1079   2.512       .  S
Cd1075     O1077   2.439       .  S
C1078      O1082   1.265       .  A
C1083      C1115   1.463       .  S
C1083      N1088   1.351       .  A
N1084      C1085   1.358       .  A
N1086      C1087   1.366       .  A
C1087      N1088   1.357       .  A
C1089      C1094   1.381       .  A
C1089      C1090   1.403       .  A
C1089      O1095   1.319       .  A
C1090      C1091   1.403       .  A
C1090      H1101   1.085       .  S
C1091      C1100   1.362       .  A
C1091      C1092   1.382       .  A
C1092      C1253   1.399       .  A
C1092      O1258   1.315       .  A
C1093      C1252   1.402       .  A
C1093      C1254   1.400       .  A
C1093      H1102   1.086       .  S
C1094      C1253   1.398       .  A
C1094      C1257   1.357       .  A
O1095      C1256   1.331       .  A
C1096      C1097   1.391       .  A
C1096      O1255   1.329       .  A
C1097      C1254   1.362       .  A
C1097      H1103   1.084       .  S
O1098      C1252   1.315       .  A
O1098      C1099   1.330       .  A
C1099      C1260   1.390       .  A
C1100      C1259   1.392       .  A
C1100      H1104   1.084       .  S
C1105      C1110   1.381       .  A
C1105      O1111   1.315       .  A
C1106      C1107   1.399       .  A
C1106      H1117   1.086       .  S
C1107      C1116   1.357       .  A
C1107      C1108   1.382       .  A
C1108      C1109   1.400       .  A
C1108      O1114   1.316       .  A
C1109      H1118   1.086       .  S
C1110      C1113   1.363       .  A
O1111      C1112   1.328       .  A
C1112      C1113   1.392       .  A
C1113      H1119   1.084       .  S
O1114      C1115   1.329       .  A
C1115      C1116   1.390       .  A
C1116      H1120   1.084       .  S
O1121      C1124   1.264       .  A
O1121     Cd1126   2.522       .  S
C1122      O1131   1.266       .  A
C1122      O1127   1.259       .  A
C1122      C1151   1.467       .  S
O1123      C1129   1.264       .  A
O1123     Cd1126   2.460       .  S
C1124      O1132   1.266       .  A
C1124      C1188   1.491       .  S
C1125      O1130   1.267       .  A
C1125      O1128   1.266       .  A
C1125      C1142   1.471       .  S
Cd1126     O1133   2.507       .  S
Cd1126     O1132   2.550       .  S
Cd1126     O1131   2.542       .  S
Cd1126     O1127   2.402       .  S
Cd1126     O1130   2.494       .  S
Cd1126     O1128   2.461       .  S
C1129      O1133   1.266       .  A
C1129      C1138   1.472       .  S
O1134      C1137   1.265       .  A
O1134     Cd1139   2.541       .  S
C1135      O1144   1.260       .  A
C1135      O1140   1.267   1_556  A
O1136      C1142   1.264       .  A
O1136     Cd1139   2.462       .  S
C1137      O1145   1.264       .  A
C1138      O1143   1.268       .  A
C1138      O1141   1.264       .  A
Cd1139     O1146   2.497       .  S
Cd1139     O1145   2.521       .  S
C1142      O1146   1.266       .  A
C1147      C1272   1.462       .  S
C1147      N1148   1.348       .  A
N1148      C1149   1.356       .  A
C1149      C1173   1.467       .  S
C1149      N1150   1.368       .  A
C1151      N1152   1.356       .  A
C1153      C1256   1.468       .  S
C1153      N1154   1.350       .  A
C1153      N1158   1.352       .  A
N1154      C1155   1.356       .  A
C1155      C1162   1.465       .  S
C1155      N1156   1.363       .  A
N1156      C1157   1.365       .  A
C1157      N1158   1.360       .  A
O1159      C1162   1.259       .  A
O1159     Cd1164   2.391       .  S
C1160      O1169   1.266       .  A
C1160      O1165   1.267       .  A
O1161      C1167   1.266       .  A
O1161     Cd1164   2.470       .  S
C1162      O1170   1.267       .  A
C1163      O1168   1.271       .  A
C1163      O1166   1.262       .  A
C1163      C1176   1.476       .  S
Cd1164     O1171   2.524       .  S
Cd1164     O1170   2.542       .  S
Cd1164     O1169   2.524       .  S
Cd1164     O1165   2.543       .  S
C1167      O1171   1.267       .  A
C1167      C1180   1.480       .  S
O1172      C1175   1.263       .  A
O1172     Cd1177   2.517       .  S
C1173      O1182   1.260       .  A
C1173      O1178   1.267       .  A
O1174      C1180   1.269       .  A
O1174     Cd1177   2.536       .  S
C1175      O1183   1.267       .  A
C1175      C1233   1.491       .  S
C1176      O1181   1.266       .  A
C1176      O1179   1.263       .  A
Cd1177     O1184   2.461       .  S
Cd1177     O1183   2.556       .  S
Cd1177     O1182   2.403       .  S
Cd1177     O1178   2.546       .  S
Cd1177     O1181   2.495       .  S
Cd1177     O1179   2.501       .  S
C1180      O1184   1.263       .  A
O1185      C1188   1.265       .  A
O1185     Cd1190   2.527       .  S
C1186      O1195   1.267       .  A
C1186      O1191   1.259       .  A
C1186      C1245   1.469       .  S
O1187      C1193   1.267       .  A
O1187     Cd1190   2.492       .  S
C1188      O1196   1.266       .  A
C1189      O1194   1.266       .  A
C1189      O1192   1.265       .  A
C1189      C1202   1.475       .  S
Cd1190     O1197   2.457       .  S
Cd1190     O1196   2.548       .  S
Cd1190     O1195   2.550       .  S
Cd1190     O1191   2.397       .  S
Cd1190     O1194   2.482       .  S
Cd1190     O1192   2.500       .  S
C1193      O1197   1.265       .  A
C1193      C1206   1.469       .  S
O1198      C1201   1.262       .  A
O1198     Cd1203   2.409       .  S
C1199      O1204   1.264       .  A
O1200      C1206   1.265       .  A
O1200     Cd1203   2.462       .  S
C1201      O1209   1.267       .  A
C1201      C1213   1.461       .  S
C1202      O1207   1.269       .  A
C1202      O1205   1.264       .  A
Cd1203     O1210   2.486       .  S
Cd1203     O1209   2.506       .  S
Cd1203     O1204   2.526       .  S
C1206      O1210   1.265       .  A
C1211      C1259   1.466       .  S
C1211      N1212   1.350       .  A
C1211      N1216   1.351       .  A
N1212      C1213   1.357       .  A
C1213      N1214   1.366       .  A
N1214      C1215   1.365       .  A
C1215      N1216   1.358       .  A
O1217      C1220   1.266       .  A
C1218      O1227   1.266       .  A
C1218      O1223   1.265       .  A
O1219      C1225   1.266       .  A
C1220      O1228   1.260       .  A
C1221      O1226   1.263       .  A
C1221      O1224   1.265       .  A
C1221      C1234   1.473       .  S
Cd1222     O1227   2.541       .  S
Cd1222     O1223   2.520       .  S
Cd1222     O1226   2.467       .  S
Cd1222     O1224   2.518       .  S
C1225      O1229   1.266       .  A
C1225      C1238   1.476       .  S
O1230      C1233   1.265       .  A
O1230     Cd1235   2.529       .  S
C1231      O1240   1.259       .  A
C1231      O1236   1.267       .  A
C1231      C1247   1.466       .  S
O1232      C1238   1.262       .  A
O1232     Cd1235   2.468       .  S
C1233      O1241   1.265       .  A
C1234      O1239   1.269       .  A
C1234      O1237   1.265       .  A
Cd1235     O1242   2.529       .  S
Cd1235     O1241   2.544       .  S
Cd1235     O1240   2.402       .  S
Cd1235     O1236   2.541       .  S
Cd1235     O1239   2.505       .  S
Cd1235     O1237   2.446       .  S
C1238      O1242   1.266       .  A
C1243      C1275   1.465       .  S
C1243      N1248   1.350       .  A
N1244      C1245   1.356       .  A
N1246      C1247   1.366       .  A
C1247      N1248   1.358       .  A
C1249      C1254   1.381       .  A
C1249      C1250   1.401       .  A
C1249      O1255   1.315       .  A
C1250      C1251   1.399       .  A
C1250      H1261   1.085       .  S
C1251      C1260   1.361       .  A
C1251      C1252   1.381       .  A
C1253      H1262   1.086       .  S
C1256      C1257   1.390       .  A
C1257      H1263   1.084       .  S
O1258      C1259   1.328       .  A
C1260      H1264   1.084       .  S
C1265      C1270   1.382       .  A
C1265      O1271   1.314       .  A
C1266      C1267   1.399       .  A
C1266      H1277   1.086       .  S
C1267      C1276   1.359       .  A
C1267      C1268   1.382       .  A
C1268      C1269   1.401       .  A
C1268      O1274   1.316       .  A
C1269      H1278   1.085       .  S
C1270      C1273   1.359       .  A
O1271      C1272   1.327       .  A
C1272      C1273   1.391       .  A
C1273      H1279   1.084       .  S
O1274      C1275   1.329       .  A
C1275      C1276   1.390       .  A
C1276      H1280   1.084       .  S
