geometry optimzed in LAMMPS
_audit_creation_date              2020-12-01 
_audit_creation_method            'lammps2cif' 
_symmetry_space_group_name_H-M    'P1' 
_symmetry_Int_Tables_number       1 
_symmetry_cell_setting            triclinic 
loop_ 
_symmetry_equiv_pos_as_xyz 
  x,y,z 
_cell_length_a                    33.32928454 
_cell_length_b                    35.12868128063109 
_cell_length_c                    34.890466550673445 
_cell_angle_alpha                 90.08311454287688 
_cell_angle_beta                  90.07731929093421 
_cell_angle_gamma                 83.12553966437228 
loop_ 
_atom_site_label 
_atom_site_type_symbol 
_atom_site_fract_x 
_atom_site_fract_y 
_atom_site_fract_z 
_atom_site_charge 
C1          C  0.86160715  0.87330537  0.62385390    -0.03000
C2          C  0.48833531  0.54451866  0.61749667    -0.03000
C3          C  0.83991151  0.56136108  0.94280256    -0.03000
C4          C  0.51227353  0.86785589  0.94418513    -0.03000
C5          C  0.99009523  0.04178808  0.43412757    -0.03000
C6          C  0.01531849  0.36716386  0.11031211    -0.03000
C7          C  0.33695036  0.06164726  0.11203147    -0.03000
C8          C  0.36033566  0.37546936  0.42594894    -0.03000
Zr9        Zr  0.88258500  0.93256172  0.97813750     2.17500
O10         O  0.83138703  0.94919910  0.92901677    -0.51800
O11         O  0.88433760  0.86303756  0.97604712    -0.75000
O12         O  0.91033175  0.91938293  0.91504842    -0.81800
O13         O  0.80144768  0.94171632  0.05662525    -0.83600
O14         O  0.96933789  0.94550353  0.90950531    -0.79200
O15         O  0.81529858  0.92189498  0.99552130    -0.90800
O16         O  0.92948529  0.83796598  0.02072095    -0.76800
O17         O  0.95251486  0.91193760  0.98632999    -0.86300
O18         O  0.88866025  0.91125747  0.04261573    -0.86000
O19         O  0.91552098  0.98806603  0.96403534    -0.72700
O20         O  0.85619422  0.98675447  0.01619592    -0.84900
Zr21       Zr  0.96798623  0.99946445  0.07661115     2.26400
Zr22       Zr  0.98600438  0.96727663  0.97382187     2.06300
Zr23       Zr  0.86367090  0.96509468  0.08114118     2.10000
Zr24       Zr  0.95858608  0.89100661  0.05106709     1.78800
O25         O  0.80818719  0.01305774  0.09959924    -0.93700
O26         O  0.01518877  0.84917150  0.02418535    -0.41500
O27         O  0.93429217  0.94460072  0.09083421    -0.78100
O28         O  0.99405710  0.94520838  0.03870739    -0.96800
O29         O  0.96135711  0.02138858  0.01237696    -0.90100
O30         O  0.89782674  0.01998816  0.06862068    -0.92900
C31         C  0.90307628  0.83456357  0.99442058     1.00800
C32         C  0.79176115  0.92682104  0.02453664     1.13700
C33         C  0.94071191  0.92793425  0.89579018     1.04500
O34         O  0.04239302  0.92070405  0.95455508    -0.95100
O35         O  0.04834537  0.98943365  0.99812513    -0.90800
O36         O  0.03411491  0.01408238  0.05759464    -0.84000
C37         C  0.05781807  0.00649306  0.02897311     1.11200
O38         O  0.84100947  0.05415563  0.95344922    -0.97100
Zr39       Zr  0.89119889  0.04141215  0.00420085     1.88900
O40         O  0.96456791  0.06841333  0.08069243    -0.73700
O41         O  0.00358749  0.01631989  0.92968790    -0.53000
O42         O  0.91404413  0.08230012  0.95435869    -0.97700
O43         O  0.83153930  0.08077555  0.02889209    -0.54900
O44         O  0.91733723  0.09403901  0.03803041    -0.74200
C45         C  0.94417222  0.09691798  0.06401437     0.98100
O46         O  0.01801452  0.98303042  0.12695781    -0.63100
O47         O  0.84612233  0.91602090  0.12519437    -0.57900
O48         O  0.94132140  0.01047352  0.14016457    -0.94500
O49         O  0.88156309  0.98566324  0.14568986    -0.93000
O50         O  0.93801842  0.85520080  0.10595051    -0.93300
O51         O  0.01340006  0.87649273  0.09699352    -0.92100
C52         C  0.91086948  0.00228058  0.15952466     1.17000
H53         H  0.87284913  0.89044808  0.04745144     0.32900
H54         H  0.02231448  0.93810712  0.04445661     0.43700
H55         H  0.88872771  0.04053009  0.08612027     0.37300
H56         H  0.91067868  0.99555582  0.93765612     0.33800
H57         H  0.01338671  0.82383574  0.03604124     0.25500
H58         H  0.02536846  0.00306302  0.91354534     0.31500
H59         H  0.94252446  0.08475707  0.96093562     0.37400
H60         H  0.91485454  0.84250201  0.09673421     0.31800
H61         H  0.87169947  0.90705903  0.13861777     0.30700
H62         H  0.79567382  0.00174734  0.12192627     0.32400
H63         H  0.83908238  0.08880880  0.05486794     0.31400
H64         H  0.00513444  0.89247901  0.11968646     0.35400
H65         H  0.00686648  0.96324030  0.14254293     0.28100
H66         H  0.83138325  0.92595164  0.91293166     0.32300
H67         H  0.83375403  0.08232682  0.95318687     0.35200
H68         H  0.82901471  0.93019492  0.14494716     0.27800
H69         H  0.04160067  0.96875600  0.11398724     0.40700
H70         H  0.05268250  0.90858547  0.97881232     0.30700
H71         H  0.00787654  0.84576160  0.99698493     0.38300
H72         H  0.81162290  0.06250046  0.03338947     0.30200
H73         H  0.98007553  0.02122853  0.91225743     0.30300
H74         H  0.84260770  0.96813865  0.91238194     0.30500
Zr75       Zr  0.87568761  0.50922230  0.56434380     2.17500
O76         O  0.82609446  0.56548196  0.55553025    -0.51800
O77         O  0.87529916  0.51207008  0.63404494    -0.75000
O78         O  0.80810767  0.49482872  0.57736593    -0.81800
O79         O  0.95754932  0.57318416  0.54373412    -0.83600
O80         O  0.80094317  0.43424106  0.55801631    -0.79200
O81         O  0.89691213  0.57173605  0.57337936    -0.90800
O82         O  0.92111975  0.46375379  0.65521831    -0.76800
O83         O  0.88345616  0.44381969  0.58318054    -0.86300
O84         O  0.94491938  0.49575727  0.58160351    -0.86000
O85         O  0.85550963  0.47449605  0.50951191    -0.72700
O86         O  0.91271263  0.52238553  0.50795302    -0.84900
Zr87       Zr  0.97139495  0.40704818  0.48898916     2.26400
Zr88       Zr  0.86519335  0.40824977  0.52836454     2.06300
Zr89       Zr  0.98246363  0.50720646  0.52518686     2.10000
Zr90       Zr  0.95273241  0.43022095  0.59985225     1.78800
O91         O  0.00814640  0.55302595  0.48205000    -0.93700
O92         O  0.92685112  0.38146249  0.63929728    -0.41500
O93         O  0.99164327  0.44119956  0.54387776    -0.78100
O94         O  0.93496454  0.39337302  0.54568413    -0.96800
O95         O  0.90222686  0.42050826  0.47192165    -0.90100
O96         O  0.96367768  0.47247439  0.47035702    -0.92900
C97         C  0.89410220  0.49245485  0.66098869     1.00800
C98         C  0.92643313  0.58906173  0.56209449     1.13700
C99         C  0.78726828  0.46673731  0.57306622     1.04500
O100        O  0.84618767  0.36099951  0.57372912    -0.95100
O101        O  0.88655689  0.34350386  0.50242781    -0.90800
O102        O  0.94755962  0.34677872  0.47456596    -0.84000
C103        C  0.91790314  0.32854750  0.48360427     1.11200
O104        O  0.83799872  0.53626235  0.44430106    -0.97100
Zr105      Zr  0.89436382  0.48614963  0.45378792     1.88900
O106        O  0.97395725  0.40612026  0.41922411    -0.73700
O107        O  0.81266247  0.39804576  0.48217755    -0.53000
O108        O  0.84160623  0.46788863  0.41155563    -0.97700
O109        O  0.91993041  0.53797267  0.41834703    -0.54900
O110        O  0.92563923  0.45250416  0.39841752    -0.74200
C111        C  0.95403540  0.42505393  0.39243827     0.98100
O112        O  0.02221765  0.35260695  0.50235961    -0.63100
O113        O  0.03022317  0.51911653  0.57544380    -0.57900
O114        O  0.03922365  0.41965937  0.47585593    -0.94500
O115        O  0.04777303  0.47865708  0.49890598    -0.93000
O116        O  0.00865740  0.45055927  0.63653765    -0.93300
O117        O  0.00459770  0.37705925  0.61371877    -0.92100
C118        C  0.06094447  0.44661756  0.48255683     1.17000
H119        H  0.95182914  0.51193342  0.60242374     0.32900
H120        H  0.94057307  0.36649140  0.55195702     0.43700
H121        H  0.98086464  0.47675014  0.44890883     0.37300
H122        H  0.82735507  0.48222518  0.50382570     0.33800
H123        H  0.93881997  0.38449360  0.66495499     0.25500
H124        H  0.79571191  0.38088656  0.49546265     0.31500
H125        H  0.84183962  0.43996339  0.41551066     0.37400
H126        H  0.03226737  0.44628674  0.61920982     0.31800
H127        H  0.05106535  0.49654596  0.57474963     0.30700
H128        H  0.02847034  0.56481018  0.49734644     0.32400
H129        H  0.94539864  0.52629111  0.40639177     0.31400
H130        H  0.00708051  0.36170091  0.58985490     0.35400
H131        H  0.04108518  0.36243762  0.52084223     0.28100
H132        H  0.81173495  0.56924231  0.58033142     0.32300
H133        H  0.84039919  0.54507577  0.41754807     0.35200
H134        H  0.04416956  0.54042883  0.56556841     0.27800
H135        H  0.00823902  0.33457400  0.51778631     0.40700
H136        H  0.87166281  0.35151688  0.58705451     0.30700
H137        H  0.89779008  0.39058218  0.64267535     0.38300
H138        H  0.92864835  0.55529120  0.43831000     0.30200
H139        H  0.79539889  0.42297284  0.48056229     0.30300
H140        H  0.80582428  0.55747877  0.53737698     0.30500
Zr141      Zr  0.46873111  0.49764058  0.97598166     2.17500
O142        O  0.52020700  0.48441643  0.92652073    -0.51800
O143        O  0.46626150  0.56706354  0.97343150    -0.75000
O144        O  0.44158341  0.51214620  0.91336695    -0.81800
O145        O  0.55107911  0.48446268  0.05327983    -0.83600
O146        O  0.38139246  0.48849393  0.90688039    -0.79200
O147        O  0.53632441  0.50697612  0.99337580    -0.90800
O148        O  0.41951168  0.59224892  0.01645213    -0.76800
O149        O  0.39930461  0.51979598  0.98483969    -0.86300
O150        O  0.46408628  0.51776412  0.04080898    -0.86000
O151        O  0.43432170  0.44333125  0.96041324    -0.72700
O152        O  0.49401076  0.44175428  0.01201202    -0.84900
Zr153      Zr  0.38230367  0.43076387  0.07282837     2.26400
Zr154      Zr  0.36420166  0.46572536  0.97079393     2.06300
Zr155      Zr  0.48820775  0.46225767  0.07751068     2.10000
Zr156      Zr  0.39453257  0.53910600  0.05014263     1.78800
O157        O  0.54366141  0.41324200  0.09343256    -1.06900
O158        O  0.33363754  0.57939251  0.02995772    -0.41500
O159        O  0.41801248  0.48415738  0.08832239    -0.78100
O160        O  0.35727693  0.48633187  0.03635667    -0.96800
O161        O  0.38743509  0.41043113  0.00812417    -0.90100
O162        O  0.45198870  0.40873209  0.06407853    -0.92900
C163        C  0.44605923  0.59562695  0.99040122     1.00800
C164        C  0.56054123  0.50025429  0.02168273     1.13700
C165        C  0.41094327  0.50510415  0.89369038     1.04500
O166        O  0.30861798  0.51387780  0.95305899    -0.95100
O167        O  0.30199888  0.44256403  0.99471709    -0.90800
O168        O  0.31602280  0.41690242  0.05381555    -0.84000
C169        C  0.29248088  0.42483979  0.02513479     1.11200
O170        O  0.50428342  0.37236546  0.94691393    -0.97100
Zr171      Zr  0.45687449  0.38843085  0.99928008     1.88900
O172        O  0.38305220  0.36186134  0.07567445    -0.73700
O173        O  0.34592174  0.41873784  0.92452562    -0.53000
O174        O  0.42769114  0.34925694  0.95138482    -0.97700
O175        O  0.51684187  0.34793617  0.02168680    -0.54900
O176        O  0.43060064  0.33606069  0.03353078    -0.74200
C177        C  0.40339822  0.33321099  0.05913161     0.98100
O178        O  0.33267747  0.44738468  0.12334581    -0.63100
O179        O  0.50737465  0.50819508  0.12449974    -0.57900
O180        O  0.41034273  0.41650870  0.13515364    -0.94500
O181        O  0.47118998  0.43926918  0.14121652    -0.93000
O182        O  0.42239821  0.57711431  0.09980727    -0.93300
O183        O  0.34667639  0.55338937  0.10237074    -0.92100
C184        C  0.44158542  0.42276666  0.15444606     1.17000
H185        H  0.48028087  0.53829906  0.04564019     0.32900
H186        H  0.32916196  0.49389224  0.04235771     0.43700
H187        H  0.46077372  0.38761880  0.08099597     0.37300
H188        H  0.43889637  0.43635625  0.93384644     0.33800
H189        H  0.33861546  0.60581158  0.03671694     0.25500
H190        H  0.32750871  0.43368878  0.90628262     0.31500
H191        H  0.39886227  0.35011933  0.95856235     0.37400
H192        H  0.41238057  0.60404326  0.09343612     0.31800
H193        H  0.53411335  0.49679233  0.13407351     0.30700
H194        H  0.55485301  0.42220214  0.11767734     0.32400
H195        H  0.51125464  0.34211065  0.04877355     0.31400
H196        H  0.35448160  0.53325914  0.12171012     0.35400
H197        H  0.34529402  0.46493669  0.14060910     0.28100
H198        H  0.52040241  0.50879189  0.91232033     0.32300
H199        H  0.50806915  0.34399672  0.94560547     0.35200
H200        H  0.51319567  0.53071844  0.10937983     0.27800
H201        H  0.31037928  0.46407271  0.11089283     0.40700
H202        H  0.29571909  0.52229094  0.97768608     0.30700
H203        H  0.33457299  0.57872025  0.00160417     0.38300
H204        H  0.53815011  0.36525999  0.02301986     0.30200
H205        H  0.37091538  0.41121352  0.90967128     0.30300
H206        H  0.50915659  0.46677611  0.90821312     0.30500
Zr207      Zr  0.47856951  0.91137685  0.56385619     2.17500
O208        O  0.53169612  0.85784038  0.55548729    -0.51800
O209        O  0.47888970  0.90944075  0.63381336    -0.75000
O210        O  0.54452857  0.92873333  0.57871734    -0.81800
O211        O  0.40084003  0.84353550  0.54079212    -0.83600
O212        O  0.55156723  0.98689009  0.55281461    -0.79200
O213        O  0.46141334  0.84725980  0.56966377    -0.90800
O214        O  0.42786683  0.95334534  0.65417923    -0.76800
O215        O  0.46817798  0.97682274  0.58195866    -0.86300
O216        O  0.40913453  0.92211724  0.58105000    -0.86000
O217        O  0.49689303  0.94567396  0.50823565    -0.72700
O218        O  0.44183822  0.89674837  0.50759655    -0.84900
Zr219      Zr  0.37839255  0.01020675  0.48843601     2.26400
Zr220      Zr  0.48510705  0.01198865  0.52659088     2.06300
Zr221      Zr  0.37191761  0.90909048  0.52465764     2.10000
Zr222      Zr  0.39864390  0.98789557  0.59864319     1.78800
O223        O  0.34717322  0.86551991  0.47829906    -0.93700
O224        O  0.42430003  0.03677767  0.63831514    -0.41500
O225        O  0.36003834  0.97513094  0.54312415    -0.78100
O226        O  0.41522249  0.02491706  0.54448793    -0.96800
O227        O  0.44751774  0.99860688  0.47068363    -0.90100
O228        O  0.38850628  0.94473221  0.46980096    -0.92900
C229        C  0.45714253  0.92686369  0.66035153     1.00800
C230        C  0.43323833  0.82840472  0.55780456     1.13700
C231        C  0.56519943  0.95621353  0.57116863     1.04500
O232        O  0.50294304  0.05861786  0.57339105    -0.95100
O233        O  0.46140768  0.07615638  0.50113071    -0.90800
O234        O  0.39905116  0.07238459  0.47603890    -0.84000
C235        C  0.42888160  0.09091008  0.48399719     1.11200
O236        O  0.50966879  0.87946253  0.43976618    -0.97100
Zr237      Zr  0.45777392  0.93294211  0.45275712     1.88900
O238        O  0.37681311  0.01204036  0.41884130    -0.73700
O239        O  0.53510604  0.02620707  0.47951241    -0.53000
O240        O  0.51388595  0.95356879  0.41671957    -0.97700
O241        O  0.43273281  0.88192349  0.41544449    -0.54900
O242        O  0.42597052  0.96669006  0.39751709    -0.74200
C243        C  0.39723858  0.99394632  0.39186302     0.98100
O244        O  0.32568737  0.06296291  0.50229434    -0.63100
O245        O  0.32685288  0.89151935  0.57479450    -0.57900
O246        O  0.31133653  0.99419178  0.47590031    -0.94500
O247        O  0.30472204  0.93561238  0.50098417    -0.93000
O248        O  0.33879633  0.96984917  0.63059519    -0.93300
O249        O  0.34812676  0.04168889  0.61384480    -0.92100
C250        C  0.29049804  0.96681455  0.48373384     1.17000
H251        H  0.40300595  0.90560525  0.60179712     0.32900
H252        H  0.40881936  0.05170389  0.55093285     0.43700
H253        H  0.37137566  0.93986800  0.44844234     0.37300
H254        H  0.52510061  0.93859546  0.50235541     0.33800
H255        H  0.41579475  0.03129591  0.66471926     0.25500
H256        H  0.55141731  0.04394100  0.49287102     0.31500
H257        H  0.50521744  0.98078440  0.41040706     0.37400
H258        H  0.34751698  0.94448543  0.64216088     0.31800
H259        H  0.30645206  0.91425051  0.57770379     0.30700
H260        H  0.32948655  0.85036496  0.49326283     0.32400
H261        H  0.40859457  0.89424726  0.40173056     0.31400
H262        H  0.33048439  0.04459778  0.59093059     0.35400
H263        H  0.30630189  0.05192898  0.51927869     0.28100
H264        H  0.54718866  0.85583148  0.57979359     0.32300
H265        H  0.51226225  0.87817714  0.41150368     0.35200
H266        H  0.31190093  0.87183910  0.56288506     0.27800
H267        H  0.33848388  0.08054219  0.51939918     0.40700
H268        H  0.47685862  0.07330624  0.58072214     0.30700
H269        H  0.45399727  0.02997670  0.63848585     0.38300
H270        H  0.42180985  0.86530011  0.43475977     0.30200
H271        H  0.55354555  0.00208287  0.47674221     0.30300
H272        H  0.55038645  0.86658172  0.53624050     0.30500
C273        C  0.17345241  0.45459655  0.47166453    -0.11300
C274        C  0.18714482  0.41921574  0.45430771     0.05800
C275        C  0.15892645  0.39423450  0.44474636    -0.10100
C276        C  0.11806484  0.40392022  0.45290330    -0.11700
C277        C  0.10417472  0.43879464  0.47127008    -0.01500
C278        C  0.13233229  0.46425343  0.48022491    -0.10600
C279        C  0.23069929  0.40775087  0.44648895     0.05800
H280        H  0.16852167  0.36707309  0.43085728     0.07800
H281        H  0.09743827  0.38354617  0.44525707     0.11200
H282        H  0.12275716  0.49122144  0.49445279     0.11500
H283        H  0.19470671  0.47431553  0.47948768     0.07800
C284        C  0.25434615  0.43331439  0.42926731    -0.11300
C285        C  0.29520776  0.42209280  0.42153249    -0.10600
C286        C  0.31386573  0.38486541  0.43065650    -0.01500
C287        C  0.28978290  0.35967645  0.44874260    -0.11700
C288        C  0.24880781  0.37082289  0.45602773    -0.10100
H289        H  0.24114845  0.46195746  0.42155291     0.07800
H290        H  0.31262502  0.44282872  0.40867896     0.11500
H291        H  0.30245321  0.33173216  0.45877965     0.11200
H292        H  0.23141688  0.35080298  0.47017017     0.07800
C293        C  0.40978634  0.37328044  0.24229556    -0.11300
C294        C  0.42186147  0.39672588  0.27151887     0.05800
C295        C  0.44662554  0.42522419  0.26260731    -0.10100
C296        C  0.45630173  0.43215930  0.22430002    -0.11700
C297        C  0.44137774  0.41046878  0.19482523    -0.01500
C298        C  0.41963243  0.37991015  0.20441098    -0.10600
C299        C  0.40615175  0.39255867  0.31058055     0.05800
H300        H  0.45642043  0.44345384  0.28496351     0.07800
H301        H  0.47294817  0.45595208  0.21760378     0.11200
H302        H  0.40826008  0.36234727  0.18228009     0.11500
H303        H  0.39141734  0.35065166  0.24869952     0.07800
C304        C  0.36441484  0.39310773  0.31644233    -0.11300
C305        C  0.34907996  0.38780159  0.35301084    -0.10600
C306        C  0.37524908  0.38196615  0.38479718    -0.01500
C307        C  0.41734413  0.37978372  0.37807470    -0.11700
C308        C  0.43251007  0.38601556  0.34166664    -0.10100
H309        H  0.34361345  0.39753237  0.29253261     0.07800
H310        H  0.31685389  0.38743253  0.35584857     0.11500
H311        H  0.43852665  0.37402594  0.40151520     0.11200
H312        H  0.46485330  0.38474123  0.33758191     0.07800
C313        C  0.41860412  0.28079405  0.46580974    -0.11300
C314        C  0.40047350  0.25299912  0.44523470     0.05800
C315        C  0.37179647  0.26543119  0.41695286    -0.10100
C316        C  0.35964676  0.30441380  0.41120491    -0.11700
C317        C  0.37540069  0.33258914  0.43368129    -0.01500
C318        C  0.40681420  0.31996576  0.45967589    -0.10600
C319        C  0.40935617  0.21134422  0.45445177     0.05800
H320        H  0.35830373  0.24494538  0.39936626     0.07800
H321        H  0.33705275  0.31274981  0.38948968     0.11200
H322        H  0.42285154  0.33995342  0.47532147     0.11500
H323        H  0.44131103  0.27234755  0.48736008     0.07800
C324        C  0.44823949  0.19446234  0.46536926    -0.11300
C325        C  0.45522832  0.15529080  0.47488550    -0.10600
C326        C  0.42349743  0.13227735  0.47343090    -0.01500
C327        C  0.38482644  0.14942853  0.46249919    -0.11700
C328        C  0.37787052  0.18819418  0.45339961    -0.10100
H329        H  0.47328477  0.21141730  0.46630801     0.07800
H330        H  0.48532909  0.14306419  0.48324020     0.11500
H331        H  0.35931500  0.13303746  0.46155909     0.11200
H332        H  0.34732743  0.20019355  0.44630397     0.07800
C333        C  0.33480760  0.17190356  0.11883170    -0.11300
C334        C  0.36699749  0.17950151  0.09503289     0.05800
C335        C  0.38990291  0.14826807  0.07715977    -0.10100
C336        C  0.38119512  0.11083070  0.08280180    -0.11700
C337        C  0.34764176  0.10300872  0.10490079    -0.01500
C338        C  0.32535035  0.13437536  0.12365914    -0.10600
C339        C  0.37671405  0.21953474  0.08833324     0.05800
H340        H  0.41474183  0.15246985  0.05833999     0.07800
H341        H  0.40171978  0.08836106  0.06995741     0.11200
H342        H  0.30034108  0.12967051  0.14215261     0.11500
H343        H  0.31703566  0.19482046  0.13415543     0.07800
C344        C  0.34621117  0.25098640  0.08895082    -0.11300
C345        C  0.35513570  0.28800310  0.08043226    -0.10600
C346        C  0.39451760  0.29440213  0.07012811    -0.01500
C347        C  0.42512789  0.26336137  0.07004126    -0.11700
C348        C  0.41651433  0.22657232  0.07967113    -0.10100
H349        H  0.31513427  0.24703647  0.09489964     0.07800
H350        H  0.33091639  0.31148431  0.08068887     0.11500
H351        H  0.45589057  0.26762634  0.06289676     0.11200
H352        H  0.44129194  0.20369285  0.08022522     0.07800
C353        C  0.32034888  0.04137302  0.22029156    -0.11300
C354        C  0.35986610  0.04000465  0.23467447     0.05800
C355        C  0.39061180  0.04872926  0.20994078    -0.10100
C356        C  0.38240198  0.05685666  0.17134359    -0.11700
C357        C  0.34346025  0.05521103  0.15576384    -0.01500
C358        C  0.31212902  0.04917682  0.18151437    -0.10600
C359        C  0.36929476  0.02849424  0.27501955     0.05800
H360        H  0.42117247  0.04902097  0.22042776     0.07800
H361        H  0.40702871  0.06297078  0.15300732     0.11200
H362        H  0.28112052  0.05027845  0.17216427     0.11500
H363        H  0.29586408  0.03540619  0.23886396     0.07800
C364        C  0.34409353  0.04292373  0.30525717    -0.11300
C365        C  0.35303565  0.03167188  0.34311962    -0.10600
C366        C  0.38723653  0.00545589  0.35160492    -0.01500
C367        C  0.41216747  0.99077141  0.32120688    -0.11700
C368        C  0.40341350  0.00230012  0.28344787    -0.10100
H369        H  0.31772094  0.06330557  0.29966010     0.07800
H370        H  0.33309561  0.04354125  0.36574136     0.11500
H371        H  0.43870343  0.97051987  0.32656441     0.11200
H372        H  0.42308578  0.99027738  0.26068844     0.07800
C373        C  0.24205700  0.01267452  0.08888946    -0.11300
C374        C  0.21738852  0.04105674  0.06883266     0.05800
C375        C  0.23091723  0.07699079  0.06358181    -0.10100
C376        C  0.26848756  0.08442803  0.07782184    -0.11700
C377        C  0.29336266  0.05637087  0.09884192    -0.01500
C378        C  0.27936496  0.02018259  0.10359584    -0.10600
C379        C  0.17703080  0.03366290  0.05456150     0.05800
H380        H  0.21268161  0.09918096  0.04764249     0.07800
H381        H  0.27806049  0.11190040  0.07100687     0.11200
H382        H  0.29779934  0.99740147  0.11855310     0.11500
H383        H  0.23226619  0.98474420  0.09357517     0.07800
C384        C  0.17186962  0.99982979  0.03441564    -0.11300
C385        C  0.13314709  0.99202045  0.02346956    -0.10600
C386        C  0.09899609  0.01751839  0.03331649    -0.01500
C387        C  0.10437229  0.05179772  0.05237848    -0.11700
C388        C  0.14296701  0.05996171  0.06254261    -0.10100
H389        H  0.19773022  0.97921665  0.02769123     0.07800
H390        H  0.12970973  0.96520095  0.00919044     0.11500
H391        H  0.07848353  0.07183552  0.06039851     0.11200
H392        H  0.14603980  0.08612191  0.07816756     0.07800
C393        C  0.03244199  0.38667900  0.21887651    -0.11300
C394        C  0.99313916  0.38677659  0.23350230     0.05800
C395        C  0.96240766  0.37835863  0.20846410    -0.10100
C396        C  0.97026127  0.37176801  0.16961354    -0.11700
C397        C  0.00902043  0.37393437  0.15402474    -0.01500
C398        C  0.04041553  0.37995504  0.17982568    -0.10600
C399        C  0.98365403  0.39639828  0.27440785     0.05800
H400        H  0.93205769  0.37688091  0.21890404     0.07800
H401        H  0.94556958  0.36577230  0.15122266     0.11200
H402        H  0.07129677  0.37946806  0.17034522     0.11500
H403        H  0.05698423  0.39257651  0.23747840     0.07800
C404        C  0.01052655  0.38352450  0.30407809    -0.11300
C405        C  0.00092401  0.39253199  0.34242248    -0.10600
C406        C  0.96437835  0.41488414  0.35194137    -0.01500
C407        C  0.93774024  0.42793749  0.32220586    -0.11700
C408        C  0.94721421  0.41879078  0.28403782    -0.10100
H409        H  0.03871056  0.36600485  0.29772661     0.07800
H410        H  0.02224842  0.38219003  0.36458878     0.11500
H411        H  0.90935001  0.44520694  0.32839902     0.11200
H412        H  0.92610937  0.42976765  0.26194084     0.07800
C413        C  0.20843675  0.36852914  0.05566856    -0.11300
C414        C  0.17407937  0.39525852  0.05018740     0.05800
C415        C  0.17867371  0.43032963  0.03212380    -0.10100
C416        C  0.21704934  0.43906042  0.02125377    -0.11700
C417        C  0.25150816  0.41314048  0.02886508    -0.01500
C418        C  0.24673123  0.37754184  0.04548912    -0.10600
C419        C  0.13420406  0.38740484  0.06549400     0.05800
H420        H  0.15265935  0.45132797  0.02716986     0.07800
H421        H  0.22003109  0.46685447  0.00891217     0.11200
H422        H  0.27290703  0.35714021  0.05177014     0.11500
H423        H  0.20596874  0.34140338  0.06964644     0.07800
C424        C  0.12088641  0.35119810  0.06113797    -0.11300
C425        C  0.08364458  0.34373514  0.07614669    -0.10600
C426        C  0.05887533  0.37208483  0.09694749    -0.01500
C427        C  0.07280682  0.40834133  0.10112015    -0.11700
C428        C  0.10971854  0.41585248  0.08570504    -0.10100
H429        H  0.13889395  0.32884128  0.04520279     0.07800
H430        H  0.07414549  0.31606044  0.06997738     0.11500
H431        H  0.05450492  0.43127030  0.11601391     0.11200
H432        H  0.11930351  0.44394254  0.08994920     0.07800
C433        C  0.00269537  0.17863759  0.09089291    -0.11300
C434        C  0.97238834  0.21018104  0.09109626     0.05800
C435        C  0.93206511  0.20346636  0.08442011    -0.10100
C436        C  0.92270255  0.16666380  0.07577236    -0.11700
C437        C  0.95322211  0.13556313  0.07487067    -0.01500
C438        C  0.99310919  0.14172584  0.08336255    -0.10600
C439        C  0.98298680  0.24996591  0.09639369     0.05800
H440        H  0.90760051  0.22664136  0.08558915     0.07800
H441        H  0.89160282  0.16246313  0.06993690     0.11200
H442        H  0.01720555  0.11813655  0.08269779     0.11500
H443        H  0.03410549  0.18246358  0.09526593     0.07800
C444        C  0.01597170  0.25746652  0.11924167    -0.11300
C445        C  0.02640689  0.29474134  0.12275592    -0.10600
C446        C  0.00427855  0.32590032  0.10361469    -0.01500
C447        C  0.97006826  0.31817601  0.08227085    -0.11700
C448        C  0.96034207  0.28092099  0.07797045    -0.10100
H449        H  0.03355825  0.23466914  0.13488094     0.07800
H450        H  0.05186063  0.29946190  0.14074687     0.11500
H451        H  0.94967309  0.34061336  0.06922509     0.11200
H452        H  0.93489523  0.27658218  0.05987704     0.07800
C453        C  0.97648467  0.15164646  0.42125559    -0.11300
C454        C  0.94945214  0.16502053  0.45064522     0.05800
C455        C  0.93465176  0.13779735  0.47457072    -0.10100
C456        C  0.94731584  0.09855793  0.46990614    -0.11700
C457        C  0.97649173  0.08509943  0.44193629    -0.01500
C458        C  0.98991200  0.11263386  0.41719879    -0.10600
C459        C  0.93884997  0.20717812  0.45729316     0.05800
H460        H  0.91361633  0.14671929  0.49737806     0.07800
H461        H  0.93329215  0.07920400  0.48814455     0.11200
H462        H  0.01083385  0.10371676  0.39426615     0.11500
H463        H  0.98742987  0.17134579  0.40107022     0.07800
C464        C  0.96780935  0.23202726  0.44967934    -0.11300
C465        C  0.95977038  0.27112797  0.45674142    -0.10600
C466        C  0.92272480  0.28714923  0.47267462    -0.01500
C467        C  0.89319758  0.26265195  0.48008063    -0.11700
C468        C  0.90111643  0.22305486  0.47229774    -0.10100
H469        H  0.99759772  0.22124155  0.43931456     0.07800
H470        H  0.98366395  0.28860698  0.45077383     0.11500
H471        H  0.86436262  0.27391750  0.49232809     0.11200
H472        H  0.87776649  0.20496088  0.47817526     0.07800
C473        C  0.09353318  0.97899501  0.43843219    -0.11300
C474        C  0.11996366  0.00484346  0.45026860     0.05800
C475        C  0.10447960  0.04341863  0.45607019    -0.10100
C476        C  0.06343719  0.05597294  0.45043096    -0.11700
C477        C  0.03655313  0.03043178  0.43778171    -0.01500
C478        C  0.05260806  0.99159007  0.43215710    -0.10600
C479        C  0.16372173  0.99218121  0.45630841     0.05800
H480        H  0.12411035  0.06384829  0.46595610     0.07800
H481        H  0.05312054  0.08550977  0.45718159     0.11200
H482        H  0.03302016  0.97075668  0.42318925     0.11500
H483        H  0.10460083  0.94911045  0.43364746     0.07800
C484        C  0.17726510  0.95924472  0.47788661    -0.11300
C485        C  0.21862797  0.94985986  0.48602046    -0.10600
C486        C  0.24709312  0.97313543  0.47243595    -0.01500
C487        C  0.23334427  0.00491087  0.44931735    -0.11700
C488        C  0.19235447  0.01431126  0.44150851    -0.10100
H489        H  0.15575003  0.94163373  0.48963384     0.07800
H490        H  0.22811917  0.92520484  0.50384997     0.11500
H491        H  0.25423276  0.02328371  0.43776556     0.11200
H492        H  0.18291612  0.03934381  0.42416097     0.07800
C493        C  0.94159306  0.04792670  0.25074011    -0.11300
C494        C  0.92851473  0.02367250  0.27864064     0.05800
C495        C  0.90442165  0.99524874  0.26775320    -0.10100
C496        C  0.89592210  0.98955980  0.22884912    -0.11700
C497        C  0.91143334  0.01235828  0.20067877    -0.01500
C498        C  0.93301279  0.04246506  0.21223803    -0.10600
C499        C  0.94358468  0.02625409  0.31819302     0.05800
H500        H  0.89415158  0.97622853  0.28905854     0.07800
H501        H  0.87946348  0.96602412  0.22069543     0.11200
H502        H  0.94494188  0.06081192  0.19123668     0.11500
H503        H  0.95984128  0.07023762  0.25869235     0.07800
C504        C  0.98530127  0.02065011  0.32504524    -0.11300
C505        C  0.00064955  0.02506146  0.36179102    -0.10600
C506        C  0.97452302  0.03497237  0.39302531    -0.01500
C507        C  0.93253997  0.04192587  0.38527245    -0.11700
C508        C  0.91722416  0.03682616  0.34852893    -0.10100
H509        H  0.00614795  0.01325707  0.30165181     0.07800
H510        H  0.03310517  0.02168274  0.36494961     0.11500
H511        H  0.91149883  0.05095026  0.40807758     0.11200
H512        H  0.88495481  0.04213449  0.34357042     0.07800
C513        C  0.43598947  0.90922875  0.02249170    -0.11300
C514        C  0.43731552  0.94871413  0.01822776     0.05800
C515        C  0.46384811  0.96155892  0.99142114    -0.10100
C516        C  0.48802651  0.93537954  0.96869610    -0.11700
C517        C  0.48494069  0.89560669  0.97058783    -0.01500
C518        C  0.45958495  0.88299121  0.99923088    -0.10600
C519        C  0.41155515  0.97652585  0.04210549     0.05800
H520        H  0.46622670  0.99189149  0.98839655     0.07800
H521        H  0.50862001  0.94624998  0.94860317     0.11200
H522        H  0.45821167  0.85294262  0.00468058     0.11500
H523        H  0.41635428  0.89864454  0.04367881     0.07800
C524        C  0.38790888  0.00766091  0.02513970    -0.11300
C525        C  0.36379126  0.03407171  0.04772418    -0.10600
C526        C  0.36407141  0.03126966  0.08816467    -0.01500
C527        C  0.38654978  0.99857658  0.10461412    -0.11700
C528        C  0.41012692  0.97185724  0.08190390    -0.10100
H529        H  0.38773396  0.01128277  0.99431179     0.07800
H530        H  0.34546844  0.05754487  0.03366996     0.11500
H531        H  0.38564390  0.99264127  0.13491777     0.11200
H532        H  0.42755728  0.94756868  0.09553210     0.07800
C533        C  0.52374803  0.75752556  0.96173505    -0.11300
C534        C  0.48401083  0.74916959  0.95607140     0.05800
C535        C  0.45446352  0.77888144  0.94481113    -0.10100
C536        C  0.46418727  0.81627087  0.94036827    -0.11700
C537        C  0.50341111  0.82561189  0.94853676    -0.01500
C538        C  0.53340473  0.79506642  0.95790517    -0.10600
C539        C  0.47320235  0.70984092  0.96297668     0.05800
H540        H  0.42375450  0.77315455  0.93936167     0.07800
H541        H  0.44060881  0.83845516  0.93154544     0.11200
H542        H  0.56458513  0.79962478  0.96207531     0.11500
H543        H  0.54730516  0.73507742  0.96997985     0.07800
C544        C  0.49778258  0.67742509  0.94920761    -0.11300
C545        C  0.48843699  0.64043406  0.95729716    -0.10600
C546        C  0.45454335  0.63494558  0.97979094    -0.01500
C547        C  0.42968470  0.66747796  0.99309356    -0.11700
C548        C  0.43878255  0.70443958  0.98459426    -0.10100
H549        H  0.52429486  0.68071469  0.93218705     0.07800
H550        H  0.50828525  0.61611488  0.94653888     0.11500
H551        H  0.40332612  0.66442180  0.01041269     0.11200
H552        H  0.41946360  0.72887501  0.99584702     0.07800
C553        C  0.62136864  0.89661723  0.94743447    -0.11300
C554        C  0.63215856  0.88941162  0.98589253     0.05800
C555        C  0.60441637  0.87477721  0.01026751    -0.10100
C556        C  0.56696479  0.86673461  0.99614376    -0.11700
C557        C  0.55580701  0.87350963  0.95728798    -0.01500
C558        C  0.58370816  0.88937390  0.93344922    -0.10600
C559        C  0.67301258  0.89603077  0.99949089     0.05800
H560        H  0.61197495  0.86894596  0.04005089     0.07800
H561        H  0.54619767  0.85546429  0.01577612     0.11200
H562        H  0.57663360  0.89740703  0.90416310     0.11500
H563        H  0.64201399  0.90861593  0.92818645     0.07800
C564        C  0.70669142  0.88173936  0.97768495    -0.11300
C565        C  0.74505055  0.89045949  0.98731168    -0.10600
C566        C  0.75105902  0.91418769  0.01891154    -0.01500
C567        C  0.71766369  0.92693476  0.04218816    -0.11700
C568        C  0.67885377  0.91778525  0.03257956    -0.10100
H569        H  0.70320403  0.86423111  0.95258597     0.07800
H570        H  0.77001753  0.87923779  0.96910957     0.11500
H571        H  0.72125440  0.94504269  0.06679438     0.11200
H572        H  0.65324553  0.92898933  0.04998811     0.07800
C573        C  0.46733115  0.91274648  0.84892726    -0.11300
C574        C  0.49039366  0.89128058  0.82095639     0.05800
C575        C  0.52036591  0.86228922  0.83335752    -0.10100
C576        C  0.52719000  0.85535668  0.87256813    -0.11700
C577        C  0.50454595  0.87729463  0.90089687    -0.01500
C578        C  0.47341234  0.90523060  0.88790589    -0.10600
C579        C  0.48214748  0.89873060  0.77925091     0.05800
H580        H  0.53814710  0.84439798  0.81280655     0.07800
H581        H  0.55039827  0.83265707  0.88098296     0.11200
H582        H  0.45263737  0.92127047  0.90730801     0.11500
H583        H  0.44411021  0.93552601  0.84082900     0.07800
C584        C  0.44259066  0.91101837  0.76652705    -0.11300
C585        C  0.43471661  0.91991887  0.72803435    -0.10600
C586        C  0.46593542  0.91593658  0.70083915    -0.01500
C587        C  0.50532205  0.90253883  0.71301482    -0.11700
C588        C  0.51341335  0.89433674  0.75184218    -0.10100
H589        H  0.41739930  0.91364304  0.78626751     0.07800
H590        H  0.40395472  0.92967184  0.71945426     0.11500
H591        H  0.53004620  0.89945248  0.69269697     0.11200
H592        H  0.54431078  0.88539650  0.76044438     0.07800
C593        C  0.91543960  0.51947642  0.02143363    -0.11300
C594        C  0.91585015  0.47992796  0.01534755     0.05800
C595        C  0.89164225  0.46728771  0.98624370    -0.10100
C596        C  0.86776038  0.49365084  0.96350829    -0.11700
C597        C  0.86820037  0.53360851  0.96824654    -0.01500
C598        C  0.89181834  0.54598101  0.99842777    -0.10600
C599        C  0.94102778  0.45184606  0.03960669     0.05800
H600        H  0.89065681  0.43693617  0.98148446     0.07800
H601        H  0.84894335  0.48283655  0.94167200     0.11200
H602        H  0.89158221  0.57599076  0.00527557     0.11500
H603        H  0.93359271  0.52996177  0.04399634     0.07800
C604        C  0.94224193  0.45668287  0.07945702    -0.11300
C605        C  0.96564902  0.43007586  0.10242845    -0.10600
C606        C  0.98815396  0.39728131  0.08623707    -0.01500
C607        C  0.98830969  0.39397430  0.04583330    -0.11700
C608        C  0.96443620  0.42030591  0.02298452    -0.10100
H609        H  0.92483536  0.48106291  0.09296646     0.07800
H610        H  0.96642049  0.43615359  0.13273465     0.11500
H611        H  0.00647762  0.37024227  0.03200359     0.11200
H612        H  0.96479727  0.41635812  0.99218935     0.07800
C613        C  0.82746514  0.56102053  0.83213152    -0.11300
C614        C  0.86164115  0.53652337  0.82001266     0.05800
C615        C  0.89038946  0.52288477  0.84771638    -0.10100
C616        C  0.88399761  0.53109748  0.88651753    -0.11700
C617        C  0.84818033  0.55297387  0.89945455    -0.01500
C618        C  0.82146964  0.56995693  0.87112462    -0.10600
C619        C  0.86796839  0.52506361  0.77891514     0.05800
H620        H  0.91830229  0.50592095  0.83941978     0.07800
H621        H  0.90784809  0.52046491  0.90612224     0.11200
H622        H  0.79486805  0.58891200  0.87945900     0.11500
H623        H  0.80487375  0.57270961  0.81166074     0.07800
C624        C  0.88707148  0.48828810  0.76951159    -0.11300
C625        C  0.89535110  0.47782483  0.73140336    -0.10600
C626        C  0.88420295  0.50356835  0.70138688    -0.01500
C627        C  0.86394965  0.53993956  0.71051465    -0.11700
C628        C  0.85607309  0.55061787  0.74881042    -0.10100
H629        H  0.89567357  0.46735808  0.79168243     0.07800
H630        H  0.91040553  0.44937608  0.72546247     0.11500
H631        H  0.85496840  0.56050957  0.68809610     0.11200
H632        H  0.84161841  0.57925032  0.75480632     0.07800
C633        C  0.67332473  0.50994993  0.03191789    -0.11300
C634        C  0.68065343  0.52798138  0.99697059     0.05800
C635        C  0.64803742  0.53929621  0.97262466    -0.10100
C636        C  0.60935001  0.53141477  0.98181511    -0.11700
C637        C  0.60180607  0.51151394  0.01562678    -0.01500
C638        C  0.63413635  0.50158363  0.04112708    -0.10600
C639        C  0.72187706  0.53439478  0.98435309     0.05800
H640        H  0.65257179  0.55403265  0.94600349     0.07800
H641        H  0.58539472  0.54037950  0.96160534     0.11200
H642        H  0.62939087  0.48654794  0.06749627     0.11500
H643        H  0.69805822  0.50116254  0.05134391     0.07800
C644        C  0.74802607  0.55180119  0.00838428    -0.11300
C645        C  0.78510008  0.56097922  0.99443699    -0.10600
C646        C  0.79712596  0.55328650  0.95594896    -0.01500
C647        C  0.77148217  0.53348860  0.93297542    -0.11700
C648        C  0.73433037  0.52482533  0.94677413    -0.10100
H649        H  0.73937747  0.55916840  0.03761930     0.07800
H650        H  0.80464514  0.57436484  0.01378929     0.11500
H651        H  0.78008588  0.52334781  0.90461795     0.11200
H652        H  0.71526270  0.51018192  0.92799917     0.07800
C653        C  0.90857614  0.72575996  0.98914815    -0.11300
C654        C  0.87366222  0.72054850  0.96802363     0.05800
C655        C  0.84839835  0.75320085  0.95574211    -0.10100
C656        C  0.85812521  0.79012236  0.96396209    -0.11700
C657        C  0.89310211  0.79533163  0.98510070    -0.01500
C658        C  0.91803911  0.76261493  0.99779134    -0.10600
C659        C  0.86381501  0.68109467  0.95924198     0.05800
H660        H  0.82136786  0.75018123  0.93931968     0.07800
H661        H  0.83800515  0.81462129  0.95401150     0.11200
H662        H  0.94508138  0.76544535  0.01427297     0.11500
H663        H  0.92835673  0.70121019  0.99949253     0.07800
C664        C  0.89418945  0.65250084  0.94710964    -0.11300
C665        C  0.88580099  0.61485401  0.94118529    -0.10600
C666        C  0.84697795  0.60404085  0.94821945    -0.01500
C667        C  0.81597344  0.63357687  0.95797341    -0.11700
C668        C  0.82438944  0.67139138  0.96368832    -0.10100
H669        H  0.92464102  0.65925243  0.94229575     0.07800
H670        H  0.91020144  0.59361565  0.93215344     0.11500
H671        H  0.78499899  0.62796276  0.96116998     0.11200
H672        H  0.80012296  0.69292690  0.97241462     0.07800
C673        C  0.45562776  0.50009968  0.52394917    -0.11300
C674        C  0.42272968  0.48113880  0.53511149     0.05800
C675        C  0.40824913  0.48609581  0.57281129    -0.10100
C676        C  0.42808657  0.50694822  0.59942056    -0.11700
C677        C  0.46325264  0.52323071  0.58908104    -0.01500
C678        C  0.47457166  0.52184096  0.55014101    -0.10600
C679        C  0.40460235  0.45561729  0.50769629     0.05800
H680        H  0.38155993  0.47384709  0.58193889     0.07800
H681        H  0.41529258  0.51033208  0.62780961     0.11200
H682        H  0.50007072  0.53575029  0.54053813     0.11500
H683        H  0.46798011  0.49719749  0.49530531     0.07800
C684        C  0.40542145  0.46285033  0.46819983    -0.11300
C685        C  0.39207699  0.43724188  0.44208173    -0.10600
C686        C  0.37734040  0.40323449  0.45444489    -0.01500
C687        C  0.37281779  0.39817411  0.49422814    -0.11700
C688        C  0.38743898  0.42322503  0.52045688    -0.10100
H689        H  0.41596523  0.48864787  0.45717134     0.07800
H690        H  0.39232942  0.44517058  0.41218112     0.11500
H691        H  0.35894203  0.37398763  0.50501524     0.11200
H692        H  0.38589762  0.41662556  0.55065133     0.07800
C693        C  0.58888967  0.47994284  0.59513098    -0.11300
C694        C  0.61749777  0.50001456  0.61333578     0.05800
C695        C  0.60332852  0.53151050  0.63669808    -0.10100
C696        C  0.56207656  0.54467535  0.63875796    -0.11700
C697        C  0.53355431  0.52718081  0.61714737    -0.01500
C698        C  0.54766335  0.49265460  0.59783092    -0.10600
C699        C  0.66165825  0.48998976  0.60584110     0.05800
H700        H  0.62417159  0.54662239  0.65291116     0.07800
H701        H  0.55245035  0.56968114  0.65611768     0.11200
H702        H  0.52729533  0.47513110  0.58417962     0.11500
H703        H  0.59818729  0.45504925  0.57756543     0.07800
C704        C  0.67863118  0.45213218  0.59741496    -0.11300
C705        C  0.71950346  0.44409524  0.58713087    -0.10600
C706        C  0.74438692  0.47364509  0.58554382    -0.01500
C707        C  0.72757181  0.51114949  0.59494043    -0.11700
C708        C  0.68692981  0.51921064  0.60457697    -0.10100
H709        H  0.66040793  0.42866067  0.59858928     0.07800
H710        H  0.73152084  0.41487240  0.58027073     0.11500
H711        H  0.74554010  0.53484051  0.59380344     0.11200
H712        H  0.67513115  0.54882467  0.60970794     0.07800
C713        C  0.44364402  0.55206114  0.80428993    -0.11300
C714        C  0.43234783  0.52750499  0.77549329     0.05800
C715        C  0.40899162  0.49816994  0.78557979    -0.10100
C716        C  0.39883797  0.49247244  0.82399706    -0.11700
C717        C  0.41218758  0.51586068  0.85283872    -0.01500
C718        C  0.43361677  0.54636771  0.84238670    -0.10600
C719        C  0.44642435  0.53191373  0.73553353     0.05800
H720        H  0.39937314  0.47913396  0.76388125     0.07800
H721        H  0.38269940  0.46851245  0.83134443     0.11200
H722        H  0.44439902  0.56482894  0.86404624     0.11500
H723        H  0.46198787  0.57463673  0.79771653     0.07800
C724        C  0.44818524  0.56855288  0.72016527    -0.11300
C725        C  0.46266764  0.57302672  0.68319436    -0.10600
C726        C  0.47435050  0.54089969  0.65955330    -0.01500
C727        C  0.47478838  0.50418743  0.67610706    -0.11700
C728        C  0.46047668  0.49973600  0.71329305    -0.10100
H729        H  0.43825332  0.59401027  0.73675037     0.07800
H730        H  0.46475888  0.60197425  0.67375752     0.11500
H731        H  0.48529954  0.47877825  0.65965946     0.11200
H732        H  0.46096199  0.47109224  0.72483483     0.07800
C733        C  0.48273242  0.73060231  0.58832872    -0.11300
C734        C  0.45640540  0.70614124  0.57327264     0.05800
C735        C  0.42166948  0.72209193  0.55335273    -0.10100
C736        C  0.41357104  0.76186302  0.54852103    -0.11700
C737        C  0.43999905  0.78633516  0.56370803    -0.01500
C738        C  0.47464008  0.77011100  0.58369577    -0.10600
C739        C  0.46444086  0.66437190  0.58043055     0.05800
H740        H  0.40094400  0.70377315  0.54131743     0.07800
H741        H  0.38686071  0.77337186  0.53273563     0.11200
H742        H  0.49575980  0.78792310  0.59592099     0.11500
H743        H  0.50926922  0.71921158  0.60445109     0.07800
C744        C  0.50381253  0.64517362  0.57772306    -0.11300
C745        C  0.51210939  0.60671054  0.58852702    -0.10600
C746        C  0.48131988  0.58667872  0.60344536    -0.01500
C747        C  0.44138967  0.60564865  0.60325551    -0.11700
C748        C  0.43316419  0.64392511  0.59236385    -0.10100
H749        H  0.52829390  0.66003526  0.56732549     0.07800
H750        H  0.54264290  0.59313082  0.58478284     0.11500
H751        H  0.41653760  0.59097180  0.61307660     0.11200
H752        H  0.40249240  0.65790610  0.59467646     0.07800
C753        C  0.88087437  0.95530862  0.55443874    -0.11300
C754        C  0.92260562  0.94824481  0.54949242     0.05800
C755        C  0.94506254  0.91947640  0.57078968    -0.10100
C756        C  0.92535195  0.89625769  0.59514863    -0.11700
C757        C  0.88269877  0.90078572  0.59798540    -0.01500
C758        C  0.86126111  0.93264129  0.57907707    -0.10600
C759        C  0.94184415  0.96992481  0.52047336     0.05800
H760        H  0.97757946  0.91423907  0.56762845     0.07800
H761        H  0.94326087  0.87363969  0.61080216     0.11200
H762        H  0.82928450  0.94078794  0.58297890     0.11500
H763        H  0.86340949  0.97842481  0.53902268     0.07800
C764        C  0.93282037  0.96473304  0.48185417    -0.11300
C765        C  0.94854794  0.98681150  0.45383141    -0.10600
C766        C  0.97229825  0.01602579  0.46398770    -0.01500
C767        C  0.98288625  0.01935749  0.50305012    -0.11700
C768        C  0.96762031  0.99669602  0.53101201    -0.10100
H769        H  0.91363985  0.94333632  0.47340254     0.07800
H770        H  0.94214990  0.98017426  0.42442062     0.11500
H771        H  0.00242354  0.04028439  0.51189858     0.11200
H772        H  0.97509399  0.00065826  0.56086148     0.07800
C773        C  0.90402860  0.77975094  0.57023657    -0.11300
C774        C  0.88924907  0.75132733  0.59274805     0.05800
C775        C  0.86271715  0.76333575  0.62298783    -0.10100
C776        C  0.85372155  0.80220866  0.63201366    -0.11700
C777        C  0.87072220  0.83069069  0.61113883    -0.01500
C778        C  0.89405483  0.81865057  0.57857049    -0.10600
C779        C  0.90161279  0.70956440  0.58500134     0.05800
H780        H  0.84877899  0.74281852  0.63999130     0.07800
H781        H  0.83408309  0.81018574  0.65615735     0.11200
H782        H  0.90517762  0.83880205  0.55915038     0.11500
H783        H  0.92413986  0.77225515  0.54641101     0.07800
C784        C  0.91317100  0.69618577  0.54794932    -0.11300
C785        C  0.92423489  0.65705809  0.54095999    -0.10600
C786        C  0.92285035  0.63036057  0.57053218    -0.01500
C787        C  0.91188712  0.64335950  0.60747985    -0.11700
C788        C  0.90213029  0.68245565  0.61480668    -0.10100
H789        H  0.91245094  0.71557168  0.52386354     0.07800
H790        H  0.93166192  0.64745537  0.51202935     0.11500
H791        H  0.91037810  0.62308014  0.63065991     0.11200
H792        H  0.89483991  0.69118638  0.64395329     0.07800
C793        C  0.88908810  0.92452636  0.71673860    -0.11300
C794        C  0.91196350  0.89526036  0.73732400     0.05800
C795        C  0.91950884  0.85876476  0.72067080    -0.10100
C796        C  0.90352019  0.85124433  0.68480395    -0.11700
C797        C  0.87838588  0.87983556  0.66464538    -0.01500
C798        C  0.87282684  0.91700244  0.68091564    -0.10600
C799        C  0.92528173  0.90186454  0.77718825     0.05800
H800        H  0.93802695  0.83590615  0.73545106     0.07800
H801        H  0.91195990  0.82300093  0.67304860     0.11200
H802        H  0.85536395  0.94031412  0.66582755     0.11500
H803        H  0.88277016  0.95302266  0.72881485     0.07800
C804        C  0.94137115  0.93568759  0.78767163    -0.11300
C805        C  0.94955717  0.94315874  0.82626265    -0.10600
C806        C  0.94104918  0.91721594  0.85486895    -0.01500
C807        C  0.92666659  0.88278397  0.84412269    -0.11700
C808        C  0.91916469  0.87506403  0.80575473    -0.10100
H809        H  0.94664966  0.95670228  0.76615305     0.07800
H810        H  0.96019841  0.97010997  0.83393733     0.11500
H811        H  0.91971048  0.86241154  0.86569496     0.11200
H812        H  0.90647661  0.84895546  0.79867698     0.07800
C813        C  0.74883248  0.90885828  0.64572023    -0.11300
C814        C  0.73206764  0.90908118  0.60873311     0.05800
C815        C  0.75600981  0.89284368  0.57855137    -0.10100
C816        C  0.79649668  0.87900771  0.58466823    -0.11700
C817        C  0.81495494  0.88256342  0.62081903    -0.01500
C818        C  0.78964163  0.89540457  0.65182952    -0.10600
C819        C  0.68953252  0.92536786  0.60147410     0.05800
H820        H  0.74348469  0.89118467  0.55002170     0.07800
H821        H  0.81438360  0.86784133  0.56035638     0.11200
H822        H  0.80101416  0.89594658  0.68077870     0.11500
H823        H  0.73064675  0.92011280  0.66980036     0.07800
C824        C  0.65857565  0.91635319  0.62579092    -0.11300
C825        C  0.61820770  0.92845209  0.61690121    -0.10600
C826        C  0.60785933  0.95030185  0.58379047    -0.01500
C827        C  0.63883700  0.96121159  0.56055527    -0.11700
C828        C  0.67934801  0.94860588  0.56918764    -0.10100
H829        H  0.66545380  0.89841531  0.65072326     0.07800
H830        H  0.59486889  0.91956605  0.63528756     0.11500
H831        H  0.63167449  0.97763890  0.53467682     0.11200
H832        H  0.70273323  0.95634937  0.55020195     0.07800
loop_ 
_geom_bond_atom_site_label_1 
_geom_bond_atom_site_label_2 
_geom_bond_distance 
_geom_bond_site_symmetry_2 
_ccdc_geom_bond_type 
C1          C757   1.552       .  S
C1          C777   1.556       .  S
C1          C797   1.555       .  S
C1          C817   1.553       .  S
C2          C677   1.545       .  S
C2          C697   1.557       .  S
C2          C726   1.550       .  S
C2          C746   1.552       .  S
C3          C597   1.552       .  S
C3          C617   1.559       .  S
C3          C646   1.557       .  S
C3          C666   1.556       .  S
C4          C517   1.554       .  S
C4          C537   1.555       .  S
C4          C557   1.556       .  S
C4          C577   1.561       .  S
C5          C457   1.558       .  S
C5          C477   1.557   1_655  S
C5          C506   1.552       .  S
C5          C766   1.546       .  S
C6          C397   1.554       .  S
C6          C426   1.555       .  S
C6          C446   1.555       .  S
C6          C606   1.554   1_455  S
C7          C337   1.557       .  S
C7          C357   1.554       .  S
C7          C377   1.555       .  S
C7          C526   1.555       .  S
C8          C286   1.553       .  S
C8          C306   1.546       .  S
C8          C317   1.554       .  S
C8          C686   1.546       .  S
Zr9          O10   2.439       .  S
Zr9          O11   2.437       .  S
Zr9          O12   2.411       .  S
Zr9          O15   2.396       .  S
Zr9          O17   2.373       .  S
Zr9          O18   2.373   1_556  S
Zr9          O19   2.401       .  S
Zr9          O20   2.399   1_556  S
O10          H66   0.990       .  S
O10          H74   0.990       .  S
O11          C31   1.286       .  A
O12          C33   1.281       .  A
O13         Zr23   2.471       .  S
O13          C32   1.292       .  A
O14         Zr22   2.454       .  S
O14          C33   1.288       .  A
O15          C32   1.280   1_556  A
O16         Zr24   2.441       .  S
O16          C31   1.286   1_554  A
O17         Zr22   2.396       .  S
O17         Zr24   2.377   1_556  S
O18         Zr23   2.387       .  S
O18         Zr24   2.372       .  S
O18          H53   0.966       .  S
O19         Zr22   2.399       .  S
O19         Zr39   2.401   1_566  S
O19          H56   0.966       .  S
O20         Zr23   2.395       .  S
O20         Zr39   2.401   1_565  S
Zr21         O46   2.442   1_655  S
Zr21         O40   2.415   1_565  S
Zr21         O48   2.404   1_565  S
Zr21         O36   2.416   1_665  S
Zr21         O27   2.397       .  S
Zr21         O28   2.395       .  S
Zr21         O29   2.372   1_565  S
Zr21         O30   2.379   1_565  S
Zr22         O41   2.436   1_665  S
Zr22         O34   2.434   1_655  S
Zr22         O35   2.454   1_655  S
Zr22         O28   2.398   1_556  S
Zr22         O29   2.392   1_566  S
Zr23         O25   2.435   1_565  S
Zr23         O47   2.435       .  S
Zr23         O49   2.459       .  S
Zr23         O27   2.401       .  S
Zr23         O30   2.395   1_565  S
Zr24         O50   2.436       .  S
Zr24         O51   2.437   1_655  S
Zr24         O26   2.436   1_655  S
Zr24         O27   2.399       .  S
Zr24         O28   2.398       .  S
O25          H62   0.990       .  S
O26          H57   0.990       .  S
O26          H71   0.990   1_554  S
O28          H54   0.966   1_655  S
O29         Zr39   2.377       .  S
O30         Zr39   2.373       .  S
O30          H55   0.966       .  S
C31         C657   1.491       .  S
C32         C566   1.490       .  S
C33         C806   1.476       .  S
O34          H70   0.990       .  S
O35          C37   1.288   1_566  A
O36          C37   1.282       .  A
C37         C386   1.478       .  S
O38         Zr39   2.439   1_556  S
O38          H67   0.990       .  S
Zr39         O42   2.437   1_554  S
Zr39         O43   2.439       .  S
Zr39         O44   2.439       .  S
O40          C45   1.281       .  A
O41          H58   0.990       .  S
O41          H73   0.990   1_455  S
O42          H59   0.990       .  S
O43          H63   0.990       .  S
O43          H72   0.990       .  S
O44          C45   1.285       .  A
C45         C437   1.474       .  S
O46          H65   0.990       .  S
O46          H69   0.990       .  S
O47          H61   0.990       .  S
O47          H68   0.990       .  S
O48          C52   1.281       .  A
O49          C52   1.289   1_565  A
O50          H60   0.990       .  S
O51          H64   0.990       .  S
C52         C497   1.479       .  S
Zr75         O76   2.439       .  S
Zr75         O77   2.434       .  S
Zr75         O78   2.411       .  S
Zr75         O81   2.407       .  S
Zr75         O83   2.375       .  S
Zr75         O84   2.376       .  S
Zr75         O85   2.406       .  S
Zr75         O86   2.399       .  S
O76         H132   0.990       .  S
O76         H140   0.990       .  S
O77          C97   1.284       .  A
O78          C99   1.281       .  A
O79         Zr89   2.453       .  S
O79          C98   1.288       .  A
O80         Zr88   2.455       .  S
O80          C99   1.289       .  A
O81          C98   1.280       .  A
O82         Zr90   2.435       .  S
O82          C97   1.285       .  A
O83         Zr88   2.400       .  S
O83         Zr90   2.373       .  S
O84         Zr89   2.394       .  S
O84         Zr90   2.374       .  S
O84         H119   0.966       .  S
O85         Zr88   2.403       .  S
O85        Zr105   2.400       .  S
O85         H122   0.966       .  S
O86         Zr89   2.398       .  S
O86        Zr105   2.396       .  S
Zr87        O112   2.443   1_655  S
Zr87        O106   2.436       .  S
Zr87        O114   2.400   1_655  S
Zr87        O102   2.401       .  S
Zr87         O93   2.397       .  S
Zr87         O94   2.401       .  S
Zr87         O95   2.373       .  S
Zr87         O96   2.373       .  S
Zr88        O107   2.436       .  S
Zr88        O100   2.434       .  S
Zr88        O101   2.471       .  S
Zr88         O94   2.398       .  S
Zr88         O95   2.392       .  S
Zr89         O91   2.435   1_655  S
Zr89        O113   2.436   1_655  S
Zr89        O115   2.463   1_655  S
Zr89         O93   2.394       .  S
Zr89         O96   2.390       .  S
Zr90        O116   2.436   1_655  S
Zr90        O117   2.437   1_655  S
Zr90         O92   2.436       .  S
Zr90         O93   2.403       .  S
Zr90         O94   2.402       .  S
O91         H128   0.990       .  S
O92         H123   0.990       .  S
O92         H137   0.990       .  S
O94         H120   0.966       .  S
O95        Zr105   2.376       .  S
O96        Zr105   2.373       .  S
O96         H121   0.966       .  S
C97         C626   1.489       .  S
C98         C786   1.471       .  S
C99         C706   1.486       .  S
O100        H136   0.990       .  S
O101        C103   1.292       .  A
O102        C103   1.280       .  A
C103        C466   1.493       .  S
O104       Zr105   2.438       .  S
O104        H133   0.990       .  S
Zr105       O108   2.436       .  S
Zr105       O109   2.439       .  S
Zr105       O110   2.433       .  S
O106        C111   1.285       .  A
O107        H124   0.990       .  S
O107        H139   0.990       .  S
O108        H125   0.990       .  S
O109        H129   0.990       .  S
O109        H138   0.990       .  S
O110        C111   1.285       .  A
C111        C406   1.488       .  S
O112        H131   0.990       .  S
O112        H135   0.990       .  S
O113        H127   0.990       .  S
O113        H134   0.990       .  S
O114        C118   1.280       .  A
O115        C118   1.291       .  A
O116        H126   0.990       .  S
O117        H130   0.990       .  S
C118        C277   1.488       .  S
Zr141       O142   2.440       .  S
Zr141       O143   2.432       .  S
Zr141       O144   2.396       .  S
Zr141       O147   2.392       .  S
Zr141       O149   2.372       .  S
Zr141       O150   2.368   1_556  S
Zr141       O151   2.402       .  S
Zr141       O152   2.398   1_556  S
O142        H198   0.991       .  S
O142        H206   0.990       .  S
O143        C163   1.284       .  A
O144        C165   1.278       .  A
O145       Zr155   2.472       .  S
O145        C164   1.291       .  A
O146       Zr154   2.462       .  S
O146        C165   1.289       .  A
O147        C164   1.279   1_556  A
O148       Zr156   2.437       .  S
O148        C163   1.285   1_554  A
O149       Zr154   2.397       .  S
O149       Zr156   2.376   1_556  S
O150       Zr155   2.391       .  S
O150       Zr156   2.372       .  S
O150        H185   0.966       .  S
O151       Zr154   2.403       .  S
O151       Zr171   2.404       .  S
O151        H188   0.966       .  S
O152       Zr155   2.396       .  S
O152       Zr171   2.406   1_554  S
Zr153       O178   2.441       .  S
Zr153       O172   2.420       .  S
Zr153       O180   2.396       .  S
Zr153       O168   2.410       .  S
Zr153       O159   2.399       .  S
Zr153       O160   2.396       .  S
Zr153       O161   2.367       .  S
Zr153       O162   2.379       .  S
Zr154       O173   2.436       .  S
Zr154       O166   2.434       .  S
Zr154       O167   2.463       .  S
Zr154       O160   2.401   1_556  S
Zr154       O161   2.390   1_556  S
Zr155       O157   2.435       .  S
Zr155       O179   2.436       .  S
Zr155       O181   2.456       .  S
Zr155       O159   2.404       .  S
Zr155       O162   2.398       .  S
Zr156       O182   2.436       .  S
Zr156       O183   2.435       .  S
Zr156       O158   2.435       .  S
Zr156       O159   2.399       .  S
Zr156       O160   2.399       .  S
O157        H194   0.990       .  S
O158        H189   0.990       .  S
O158        H203   0.990       .  S
O160        H186   0.966       .  S
O161       Zr171   2.371   1_554  S
O162       Zr171   2.370   1_554  S
O162        H187   0.966       .  S
C163        C546   1.490       .  S
C164        C637   1.491       .  S
C165        C717   1.477       .  S
O166        H202   0.990       .  S
O167        C169   1.290   1_556  A
O168        C169   1.281       .  A
C169        C417   1.478       .  S
O170       Zr171   2.438       .  S
O170        H199   0.990       .  S
Zr171       O174   2.438       .  S
Zr171       O175   2.439   1_556  S
Zr171       O176   2.444   1_556  S
O172        C177   1.281       .  A
O173        H190   0.990       .  S
O173        H205   0.990       .  S
O174        H191   0.990       .  S
O175        H195   0.990       .  S
O175        H204   0.990       .  S
O176        C177   1.286       .  A
C177        C346   1.480       .  S
O178        H197   0.990       .  S
O178        H201   0.990       .  S
O179        H193   0.990       .  S
O179        H200   0.990       .  S
O180        C184   1.280       .  A
O181        C184   1.289       .  A
O182        H192   0.990       .  S
O183        H196   0.990       .  S
C184        C297   1.474       .  S
Zr207       O208   2.441       .  S
Zr207       O209   2.442       .  S
Zr207       O210   2.406       .  S
Zr207       O213   2.398       .  S
Zr207       O215   2.369       .  S
Zr207       O216   2.377       .  S
Zr207       O217   2.403       .  S
Zr207       O218   2.399       .  S
O208        H264   0.990       .  S
O208        H272   0.990       .  S
O209        C229   1.285       .  A
O210        C231   1.279       .  A
O211       Zr221   2.454       .  S
O211        C230   1.289       .  A
O212       Zr220   2.460   1_565  S
O212        C231   1.289       .  A
O213        C230   1.280       .  A
O214       Zr222   2.428       .  S
O214        C229   1.283       .  A
O215       Zr220   2.399   1_565  S
O215       Zr222   2.377       .  S
O216       Zr221   2.397       .  S
O216       Zr222   2.375       .  S
O216        H251   0.965       .  S
O217       Zr220   2.402   1_565  S
O217       Zr237   2.404       .  S
O217        H254   0.966       .  S
O218       Zr221   2.395       .  S
O218       Zr237   2.394       .  S
Zr219       O244   2.444       .  S
Zr219       O238   2.429       .  S
Zr219       O246   2.408   1_545  S
Zr219       O234   2.407       .  S
Zr219       O225   2.392   1_545  S
Zr219       O226   2.396       .  S
Zr219       O227   2.374   1_545  S
Zr219       O228   2.374   1_545  S
Zr220       O239   2.436       .  S
Zr220       O232   2.434       .  S
Zr220       O233   2.464       .  S
Zr220       O226   2.402       .  S
Zr220       O227   2.393   1_545  S
Zr221       O223   2.435       .  S
Zr221       O245   2.435       .  S
Zr221       O247   2.462       .  S
Zr221       O225   2.394       .  S
Zr221       O228   2.390       .  S
Zr222       O248   2.436       .  S
Zr222       O249   2.434   1_565  S
Zr222       O224   2.437   1_565  S
Zr222       O225   2.395       .  S
Zr222       O226   2.398   1_565  S
O223        H260   0.990       .  S
O224        H255   0.990       .  S
O224        H269   0.990       .  S
O226        H252   0.966       .  S
O227       Zr237   2.374       .  S
O228       Zr237   2.373       .  S
O228        H253   0.966       .  S
C229        C586   1.484       .  S
C230        C737   1.483       .  S
C231        C826   1.479       .  S
O232        H268   0.990       .  S
O233        C235   1.291       .  A
O234        C235   1.282       .  A
C235        C326   1.490       .  S
O236       Zr237   2.439       .  S
O236        H265   0.990       .  S
Zr237       O240   2.437       .  S
Zr237       O241   2.440       .  S
Zr237       O242   2.438       .  S
O238        C243   1.284   1_545  A
O239        H256   0.990       .  S
O239        H271   0.990       .  S
O240        H257   0.990       .  S
O241        H261   0.990       .  S
O241        H270   0.990       .  S
O242        C243   1.286       .  A
C243        C366   1.489   1_565  S
O244        H263   0.990       .  S
O244        H267   0.990       .  S
O245        H259   0.990       .  S
O245        H266   0.990       .  S
O246        C250   1.282       .  A
O247        C250   1.290       .  A
O248        H258   0.990       .  S
O249        H262   0.990       .  S
C250        C486   1.490       .  S
C273        C274   1.408       .  A
C273        C278   1.404       .  A
C273        H283   1.083       .  S
C274        C279   1.485       .  S
C274        C275   1.401       .  A
C275        C276   1.393       .  A
C275        H280   1.083       .  S
C276        C277   1.410       .  A
C276        H281   1.083       .  S
C277        C278   1.406       .  A
C278        H282   1.083       .  S
C279        C284   1.400       .  A
C279        C288   1.404       .  A
C284        C285   1.398       .  A
C284        H289   1.083       .  S
C285        C286   1.416       .  A
C285        H290   1.082       .  S
C286        C287   1.414       .  A
C287        C288   1.398       .  A
C287        H291   1.080       .  S
C288        H292   1.083       .  S
C293        C294   1.398       .  A
C293        C298   1.389       .  A
C293        H303   1.084       .  S
C294        C299   1.474       .  S
C294        C295   1.407       .  A
C295        C296   1.404       .  A
C295        H300   1.083       .  S
C296        C297   1.405       .  A
C296        H301   1.083       .  S
C297        C298   1.406       .  A
C298        H302   1.084       .  S
C299        C304   1.404       .  A
C299        C308   1.397       .  A
C304        C305   1.396       .  A
C304        H309   1.083       .  S
C305        C306   1.410       .  A
C305        H310   1.080       .  S
C306        C307   1.416       .  A
C307        C308   1.395       .  A
C307        H311   1.083       .  S
C308        H312   1.083       .  S
C313        C314   1.404       .  A
C313        C318   1.402       .  A
C313        H323   1.082       .  S
C314        C319   1.493       .  S
C314        C315   1.406       .  A
C315        C316   1.395       .  A
C315        H320   1.083       .  S
C316        C317   1.411       .  A
C316        H321   1.083       .  S
C317        C318   1.415       .  A
C318        H322   1.079       .  S
C319        C324   1.411       .  A
C319        C328   1.403       .  A
C324        C325   1.408       .  A
C324        H329   1.082       .  S
C325        C326   1.407       .  A
C325        H330   1.083       .  S
C326        C327   1.408       .  A
C327        C328   1.391       .  A
C327        H331   1.083       .  S
C328        H332   1.083       .  S
C333        C334   1.408       .  A
C333        C338   1.402       .  A
C333        H343   1.082       .  S
C334        C339   1.499       .  S
C334        C335   1.405       .  A
C335        C336   1.395       .  A
C335        H340   1.081       .  S
C336        C337   1.413       .  A
C336        H341   1.078       .  S
C337        C338   1.413       .  A
C338        H342   1.083       .  S
C339        C344   1.409       .  A
C339        C348   1.411       .  A
C344        C345   1.401       .  A
C344        H349   1.082       .  S
C345        C346   1.405       .  A
C345        H350   1.083       .  S
C346        C347   1.401       .  A
C347        C348   1.399       .  A
C347        H351   1.083       .  S
C348        H352   1.081       .  S
C353        C354   1.404       .  A
C353        C358   1.401       .  A
C353        H363   1.083       .  S
C354        C359   1.488       .  S
C354        C355   1.403       .  A
C355        C356   1.397       .  A
C355        H360   1.083       .  S
C356        C357   1.414       .  A
C356        H361   1.083       .  S
C357        C358   1.414       .  A
C358        H362   1.080       .  S
C359        C364   1.405       .  A
C359        C368   1.406       .  A
C364        C365   1.401       .  A
C364        H369   1.083       .  S
C365        C366   1.408       .  A
C365        H370   1.083       .  S
C366        C367   1.407   1_545  A
C367        C368   1.399   1_565  A
C367        H371   1.083       .  S
C368        H372   1.083   1_545  S
C373        C374   1.401       .  A
C373        C378   1.398       .  A
C373        H383   1.083   1_545  S
C374        C379   1.485       .  S
C374        C375   1.403       .  A
C375        C376   1.400       .  A
C375        H380   1.083       .  S
C376        C377   1.415       .  A
C376        H381   1.079       .  S
C377        C378   1.416       .  A
C378        H382   1.083   1_545  S
C379        C384   1.408   1_545  A
C379        C388   1.403       .  A
C384        C385   1.404       .  A
C384        H389   1.083       .  S
C385        C386   1.404   1_565  A
C385        H390   1.083       .  S
C386        C387   1.405       .  A
C387        C388   1.396       .  A
C387        H391   1.083       .  S
C388        H392   1.083       .  S
C393        C394   1.406   1_455  A
C393        C398   1.403       .  A
C393        H403   1.083       .  S
C394        C399   1.492       .  S
C394        C395   1.403       .  A
C395        C396   1.395       .  A
C395        H400   1.083       .  S
C396        C397   1.413   1_655  A
C396        H401   1.083       .  S
C397        C398   1.414       .  A
C398        H402   1.080       .  S
C399        C404   1.407   1_655  A
C399        C408   1.407       .  A
C404        C405   1.403       .  A
C404        H409   1.083       .  S
C405        C406   1.408   1_455  A
C405        H410   1.083       .  S
C406        C407   1.406       .  A
C407        C408   1.397       .  A
C407        H411   1.083       .  S
C408        H412   1.083       .  S
C413        C414   1.404       .  A
C413        C418   1.398       .  A
C413        H423   1.083       .  S
C414        C419   1.489       .  S
C414        C415   1.409       .  A
C415        C416   1.403       .  A
C415        H420   1.083       .  S
C416        C417   1.403       .  A
C416        H421   1.083       .  S
C417        C418   1.406       .  A
C418        H422   1.083       .  S
C419        C424   1.404       .  A
C419        C428   1.402       .  A
C424        C425   1.401       .  A
C424        H429   1.083       .  S
C425        C426   1.415       .  A
C425        H430   1.079       .  S
C426        C427   1.414       .  A
C427        C428   1.397       .  A
C427        H431   1.083       .  S
C428        H432   1.083       .  S
C433        C434   1.407   1_455  A
C433        C438   1.397   1_455  A
C433        H443   1.082       .  S
C434        C439   1.493       .  S
C434        C435   1.411       .  A
C435        C436   1.398       .  A
C435        H440   1.082       .  S
C436        C437   1.401       .  A
C436        H441   1.083       .  S
C437        C438   1.403       .  A
C438        H442   1.083   1_655  S
C439        C444   1.407   1_655  A
C439        C448   1.403       .  A
C444        C445   1.400       .  A
C444        H449   1.082       .  S
C445        C446   1.413       .  A
C445        H450   1.083       .  S
C446        C447   1.414   1_455  A
C447        C448   1.393       .  A
C447        H451   1.078       .  S
C448        H452   1.082       .  S
C453        C454   1.408       .  A
C453        C458   1.397       .  A
C453        H463   1.082       .  S
C454        C459   1.499       .  S
C454        C455   1.404       .  A
C455        C456   1.402       .  A
C455        H460   1.082       .  S
C456        C457   1.419       .  A
C456        H461   1.079       .  S
C457        C458   1.410       .  A
C458        H462   1.083   1_655  S
C459        C464   1.403       .  A
C459        C468   1.414       .  A
C464        C465   1.389       .  A
C464        H469   1.082       .  S
C465        C466   1.409       .  A
C465        H470   1.083       .  S
C466        C467   1.407       .  A
C467        C468   1.410       .  A
C467        H471   1.083       .  S
C468        H472   1.082       .  S
C473        C474   1.400   1_565  A
C473        C478   1.400       .  A
C473        H483   1.083       .  S
C474        C479   1.488   1_545  S
C474        C475   1.406       .  A
C475        C476   1.400       .  A
C475        H480   1.083       .  S
C476        C477   1.412       .  A
C476        H481   1.079       .  S
C477        C478   1.418   1_545  A
C478        H482   1.083       .  S
C479        C484   1.409       .  A
C479        C488   1.401   1_565  A
C484        C485   1.407       .  A
C484        H489   1.083       .  S
C485        C486   1.408       .  A
C485        H490   1.083       .  S
C486        C487   1.409   1_565  A
C487        C488   1.393       .  A
C487        H491   1.083       .  S
C488        H492   1.083       .  S
C493        C494   1.399       .  A
C493        C498   1.391       .  A
C493        H503   1.084       .  S
C494        C499   1.474       .  S
C494        C495   1.406   1_545  A
C495        C496   1.405       .  A
C495        H500   1.083       .  S
C496        C497   1.406   1_565  A
C496        H501   1.083       .  S
C497        C498   1.407       .  A
C498        H502   1.083       .  S
C499        C504   1.401       .  A
C499        C508   1.398       .  A
C504        C505   1.395   1_655  A
C504        H509   1.084   1_655  S
C505        C506   1.413   1_455  A
C505        H510   1.080       .  S
C506        C507   1.417       .  A
C507        C508   1.398       .  A
C507        H511   1.083       .  S
C508        H512   1.083       .  S
C513        C514   1.401       .  A
C513        C518   1.397   1_554  A
C513        H523   1.083       .  S
C514        C519   1.478       .  S
C514        C515   1.400   1_554  A
C515        C516   1.395       .  A
C515        H520   1.083       .  S
C516        C517   1.415       .  A
C516        H521   1.083       .  S
C517        C518   1.415       .  A
C518        H522   1.079   1_556  S
C519        C524   1.401   1_565  A
C519        C528   1.400       .  A
C524        C525   1.396       .  A
C524        H529   1.083   1_554  S
C525        C526   1.414       .  A
C525        H530   1.083       .  S
C526        C527   1.416   1_545  A
C527        C528   1.396       .  A
C527        H531   1.079       .  S
C528        H532   1.083       .  S
C533        C534   1.404       .  A
C533        C538   1.401       .  A
C533        H543   1.083       .  S
C534        C539   1.489       .  S
C534        C535   1.403       .  A
C535        C536   1.399       .  A
C535        H540   1.083       .  S
C536        C537   1.414       .  A
C536        H541   1.083       .  S
C537        C538   1.415       .  A
C538        H542   1.080       .  S
C539        C544   1.405       .  A
C539        C548   1.406       .  A
C544        C545   1.401       .  A
C544        H549   1.083       .  S
C545        C546   1.409       .  A
C545        H550   1.083       .  S
C546        C547   1.407       .  A
C547        C548   1.400       .  A
C547        H551   1.083   1_556  S
C548        H552   1.083       .  S
C553        C554   1.404       .  A
C553        C558   1.397       .  A
C553        H563   1.083       .  S
C554        C559   1.486       .  S
C554        C555   1.400   1_556  A
C555        C556   1.401   1_554  A
C555        H560   1.083       .  S
C556        C557   1.418       .  A
C556        H561   1.083   1_556  S
C557        C558   1.412       .  A
C558        H562   1.079       .  S
C559        C564   1.399       .  A
C559        C568   1.410   1_556  A
C564        C565   1.390       .  A
C564        H569   1.083       .  S
C565        C566   1.410   1_556  A
C565        H570   1.083       .  S
C566        C567   1.407       .  A
C567        C568   1.410       .  A
C567        H571   1.083       .  S
C568        H572   1.083       .  S
C573        C574   1.405       .  A
C573        C578   1.396       .  A
C573        H583   1.082       .  S
C574        C579   1.498       .  S
C574        C575   1.407       .  A
C575        C576   1.403       .  A
C575        H580   1.082       .  S
C576        C577   1.415       .  A
C576        H581   1.083       .  S
C577        C578   1.415       .  A
C578        H582   1.078       .  S
C579        C584   1.409       .  A
C579        C588   1.410       .  A
C584        C585   1.397       .  A
C584        H589   1.082       .  S
C585        C586   1.404       .  A
C585        H590   1.083       .  S
C586        C587   1.406       .  A
C587        C588   1.404       .  A
C587        H591   1.083       .  S
C588        H592   1.082       .  S
C593        C594   1.404       .  A
C593        C598   1.399   1_554  A
C593        H603   1.083       .  S
C594        C599   1.482       .  S
C594        C595   1.401   1_554  A
C595        C596   1.394       .  A
C595        H600   1.083       .  S
C596        C597   1.415       .  A
C596        H601   1.083       .  S
C597        C598   1.413       .  A
C598        H602   1.080   1_556  S
C599        C604   1.402       .  A
C599        C608   1.402       .  A
C604        C605   1.397       .  A
C604        H609   1.083       .  S
C605        C606   1.415       .  A
C605        H610   1.079       .  S
C606        C607   1.414       .  A
C607        C608   1.396       .  A
C607        H611   1.083   1_655  S
C608        H612   1.083   1_554  S
C613        C614   1.408       .  A
C613        C618   1.405       .  A
C613        H623   1.082       .  S
C614        C619   1.497       .  S
C614        C615   1.404       .  A
C615        C616   1.395       .  A
C615        H620   1.083       .  S
C616        C617   1.414       .  A
C616        H621   1.081       .  S
C617        C618   1.413       .  A
C618        H622   1.083       .  S
C619        C624   1.409       .  A
C619        C628   1.408       .  A
C624        C625   1.398       .  A
C624        H629   1.082       .  S
C625        C626   1.405       .  A
C625        H630   1.083       .  S
C626        C627   1.408       .  A
C627        C628   1.404       .  A
C627        H631   1.083       .  S
C628        H632   1.082       .  S
C633        C634   1.410   1_554  A
C633        C638   1.410       .  A
C633        H643   1.083       .  S
C634        C639   1.486       .  S
C634        C635   1.399       .  A
C635        C636   1.389       .  A
C635        H640   1.084       .  S
C636        C637   1.410   1_556  A
C636        H641   1.083       .  S
C637        C638   1.408       .  A
C638        H642   1.083       .  S
C639        C644   1.400   1_556  A
C639        C648   1.404       .  A
C644        C645   1.402   1_554  A
C644        H649   1.083       .  S
C645        C646   1.418       .  A
C645        H650   1.083   1_556  S
C646        C647   1.413       .  A
C647        C648   1.396       .  A
C647        H651   1.079       .  S
C648        H652   1.083       .  S
C653        C654   1.407       .  A
C653        C658   1.401       .  A
C653        H663   1.083       .  S
C654        C659   1.493       .  S
C654        C655   1.406       .  A
C655        C656   1.403       .  A
C655        H660   1.083       .  S
C656        C657   1.409       .  A
C656        H661   1.083       .  S
C657        C658   1.407       .  A
C658        H662   1.083   1_556  S
C659        C664   1.403       .  A
C659        C668   1.405       .  A
C664        C665   1.399       .  A
C664        H669   1.083       .  S
C665        C666   1.413       .  A
C665        H670   1.083       .  S
C666        C667   1.415       .  A
C667        C668   1.404       .  A
C667        H671   1.080       .  S
C668        H672   1.083       .  S
C673        C674   1.405       .  A
C673        C678   1.389       .  A
C673        H683   1.081       .  S
C674        C679   1.486       .  S
C674        C675   1.405       .  A
C675        C676   1.396       .  A
C675        H680   1.082       .  S
C676        C677   1.412       .  A
C676        H681   1.080       .  S
C677        C678   1.410       .  A
C678        H682   1.083       .  S
C679        C684   1.403       .  A
C679        C688   1.407       .  A
C684        C685   1.389       .  A
C684        H689   1.082       .  S
C685        C686   1.413       .  A
C685        H690   1.080       .  S
C686        C687   1.410       .  A
C687        C688   1.396       .  A
C687        H691   1.083       .  S
C688        H692   1.082       .  S
C693        C694   1.403       .  A
C693        C698   1.396       .  A
C693        H703   1.082       .  S
C694        C699   1.495       .  S
C694        C695   1.409       .  A
C695        C696   1.399       .  A
C695        H700   1.082       .  S
C696        C697   1.409       .  A
C696        H701   1.083       .  S
C697        C698   1.417       .  A
C698        H702   1.079       .  S
C699        C704   1.412       .  A
C699        C708   1.404       .  A
C704        C705   1.405       .  A
C704        H709   1.082       .  S
C705        C706   1.405       .  A
C705        H710   1.083       .  S
C706        C707   1.407       .  A
C707        C708   1.392       .  A
C707        H711   1.083       .  S
C708        H712   1.082       .  S
C713        C714   1.403       .  A
C713        C718   1.392       .  A
C713        H723   1.083       .  S
C714        C719   1.486       .  S
C714        C715   1.409       .  A
C715        C716   1.403       .  A
C715        H720   1.083       .  S
C716        C717   1.403       .  A
C716        H721   1.083       .  S
C717        C718   1.406       .  A
C718        H722   1.084       .  S
C719        C724   1.403       .  A
C719        C728   1.404       .  A
C724        C725   1.394       .  A
C724        H729   1.083       .  S
C725        C726   1.414       .  A
C725        H730   1.080       .  S
C726        C727   1.412       .  A
C727        C728   1.398       .  A
C727        H731   1.083       .  S
C728        H732   1.083       .  S
C733        C734   1.401       .  A
C733        C738   1.391       .  A
C733        H743   1.083       .  S
C734        C739   1.481       .  S
C734        C735   1.407       .  A
C735        C736   1.401       .  A
C735        H740   1.083       .  S
C736        C737   1.405       .  A
C736        H741   1.083       .  S
C737        C738   1.409       .  A
C738        H742   1.083       .  S
C739        C744   1.405       .  A
C739        C748   1.399       .  A
C744        C745   1.399       .  A
C744        H749   1.083       .  S
C745        C746   1.412       .  A
C745        H750   1.079       .  S
C746        C747   1.415       .  A
C747        C748   1.393       .  A
C747        H751   1.083       .  S
C748        H752   1.083       .  S
C753        C754   1.394       .  A
C753        C758   1.389       .  A
C753        H763   1.084       .  S
C754        C759   1.462       .  S
C754        C755   1.398       .  A
C755        C756   1.397       .  A
C755        H760   1.083       .  S
C756        C757   1.415       .  A
C756        H761   1.083       .  S
C757        C758   1.417       .  A
C758        H762   1.079       .  S
C759        C764   1.397       .  A
C759        C768   1.396       .  A
C764        C765   1.390       .  A
C764        H769   1.084       .  S
C765        C766   1.414   1_565  A
C765        H770   1.079       .  S
C766        C767   1.416       .  A
C767        C768   1.395   1_545  A
C767        H771   1.083   1_655  S
C768        H772   1.083   1_565  S
C773        C774   1.406       .  A
C773        C778   1.397       .  A
C773        H783   1.081       .  S
C774        C779   1.500       .  S
C774        C775   1.409       .  A
C775        C776   1.398       .  A
C775        H780   1.081       .  S
C776        C777   1.411       .  A
C776        H781   1.083       .  S
C777        C778   1.413       .  A
C778        H782   1.078       .  S
C779        C784   1.413       .  A
C779        C788   1.410       .  A
C784        C785   1.401       .  A
C784        H789   1.081       .  S
C785        C786   1.400       .  A
C785        H790   1.083       .  S
C786        C787   1.401       .  A
C787        C788   1.396       .  A
C787        H791   1.084       .  S
C788        H792   1.081       .  S
C793        C794   1.403       .  A
C793        C798   1.399       .  A
C793        H803   1.083       .  S
C794        C799   1.486       .  S
C794        C795   1.402       .  A
C795        C796   1.397       .  A
C795        H800   1.083       .  S
C796        C797   1.416       .  A
C796        H801   1.079       .  S
C797        C798   1.415       .  A
C798        H802   1.083       .  S
C799        C804   1.408       .  A
C799        C808   1.404       .  A
C804        C805   1.404       .  A
C804        H809   1.083       .  S
C805        C806   1.404       .  A
C805        H810   1.083       .  S
C806        C807   1.404       .  A
C807        C808   1.394       .  A
C807        H811   1.084       .  S
C808        H812   1.083       .  S
C813        C814   1.405       .  A
C813        C818   1.402       .  A
C813        H823   1.083       .  S
C814        C819   1.485       .  S
C814        C815   1.401       .  A
C815        C816   1.395       .  A
C815        H820   1.083       .  S
C816        C817   1.415       .  A
C816        H821   1.083       .  S
C817        C818   1.413       .  A
C818        H822   1.079       .  S
C819        C824   1.402       .  A
C819        C828   1.409       .  A
C824        C825   1.396       .  A
C824        H829   1.083       .  S
C825        C826   1.407       .  A
C825        H830   1.084       .  S
C826        C827   1.403       .  A
C827        C828   1.402       .  A
C827        H831   1.083       .  S
C828        H832   1.083       .  S
