geometry optimzed in LAMMPS
_audit_creation_date              2020-12-01 
_audit_creation_method            'lammps2cif' 
_symmetry_space_group_name_H-M    'P1' 
_symmetry_Int_Tables_number       1 
_symmetry_cell_setting            triclinic 
loop_ 
_symmetry_equiv_pos_as_xyz 
  x,y,z 
_cell_length_a                    44.8105048 
_cell_length_b                    44.69500670859547 
_cell_length_c                    44.57238630260379 
_cell_angle_alpha                 89.23330330247575 
_cell_angle_beta                  90.25013230410833 
_cell_angle_gamma                 89.64398270965867 
loop_ 
_atom_site_label 
_atom_site_type_symbol 
_atom_site_fract_x 
_atom_site_fract_y 
_atom_site_fract_z 
_atom_site_charge 
C1          C  0.33848198  0.34438437  0.32817806     0.46000
H2          H  0.32459050  0.32848865  0.31530631    -0.03100
C3          C  0.37143569  0.38155550  0.35768361     0.46000
H4          H  0.38544410  0.39747778  0.37034168    -0.03100
C5          C  0.35834409  0.36413619  0.30801636    -0.16800
C6          C  0.32024516  0.36670008  0.34701445    -0.16500
C7          C  0.36012996  0.32893483  0.35058121    -0.16900
C8          C  0.37543495  0.38385014  0.32359305    -0.16900
C9          C  0.33784330  0.38597492  0.36312739    -0.16400
C10         C  0.37786845  0.34859559  0.36588948    -0.16800
C11         C  0.36797165  0.14893277  0.37832004     0.46000
H12         H  0.38209684  0.13515233  0.39377658    -0.03100
C13         C  0.33528724  0.18162306  0.34231976     0.46000
H14         H  0.32161576  0.19584275  0.32687984    -0.03100
C15         C  0.33429877  0.14515305  0.38346737    -0.16800
C16         C  0.37368305  0.18252234  0.38092068    -0.16500
C17         C  0.37310407  0.14185678  0.34515035    -0.16900
C18         C  0.31680038  0.16231971  0.36442572    -0.16900
C19         C  0.35648475  0.19990837  0.36216853    -0.16400
C20         C  0.35573296  0.15911871  0.32609602    -0.16800
C21         C  0.16816247  0.18028863  0.34210562     0.46000
H22         H  0.18188027  0.19370905  0.32624699    -0.03100
C23         C  0.13526671  0.14973228  0.37903474     0.46000
H24         H  0.12117654  0.13679034  0.39494956    -0.03100
C25         C  0.14791064  0.15723071  0.32660145    -0.16800
C26         C  0.18663153  0.16216446  0.36549578    -0.16500
C27         C  0.14688876  0.19970648  0.36077261    -0.16900
C28         C  0.13047999  0.14095256  0.34613148    -0.16900
C29         C  0.16896399  0.14564626  0.38481101    -0.16400
C30         C  0.12963598  0.18355396  0.38017628    -0.16800
C31         C  0.14029364  0.38163128  0.36340908     0.46000
H32         H  0.12641895  0.39757076  0.37632727    -0.03100
C33         C  0.17200642  0.34441339  0.33253455     0.46000
H34         H  0.18549540  0.32851061  0.31920758    -0.03100
C35         C  0.17397915  0.38522762  0.36836725    -0.16800
C36         C  0.13382542  0.34864323  0.37111954    -0.16500
C37         C  0.13567260  0.38491600  0.32933856    -0.16900
C38         C  0.19090413  0.36555024  0.35202016    -0.16900
C39         C  0.15007525  0.32895410  0.35421851    -0.16400
C40         C  0.15264910  0.36546039  0.31288427    -0.16800
C41         C  0.17355009  0.32942346  0.16753711     0.46000
H42         H  0.18839591  0.31625660  0.18283192    -0.03100
C43         C  0.13889606  0.36007127  0.13160309     0.46000
H44         H  0.12397517  0.37307443  0.11620510    -0.03100
C45         C  0.15236719  0.35123257  0.18383799    -0.16800
C46         C  0.19064126  0.34907546  0.14478206    -0.16500
C47         C  0.15311707  0.30993204  0.14815195    -0.16900
C48         C  0.13415234  0.36745498  0.16469927    -0.16900
C49         C  0.17216463  0.36542165  0.12604497    -0.16400
C50         C  0.13474974  0.32617267  0.12941262    -0.16800
C51         C  0.37142995  0.35697320  0.12659977     0.46000
H52         H  0.38598585  0.36876312  0.11024546    -0.03100
C53         C  0.33809343  0.32873952  0.16487005     0.46000
H54         H  0.32351624  0.31699022  0.18114167    -0.03100
C55         C  0.33793522  0.36293573  0.12177091    -0.16800
C56         C  0.37503929  0.32285055  0.12551501    -0.16500
C57         C  0.37777707  0.36565596  0.15926646    -0.16900
C58         C  0.32018149  0.34829417  0.14228823    -0.16900
C59         C  0.35712217  0.30754629  0.14546320    -0.16400
C60         C  0.36050652  0.35025825  0.17953527    -0.16800
C61         C  0.13789627  0.12994769  0.14726635     0.46000
H62         H  0.12320975  0.11544949  0.13365500    -0.03100
C63         C  0.17198324  0.16377204  0.17934528     0.46000
H64         H  0.18648306  0.17838196  0.19307499    -0.03100
C65         C  0.17112018  0.12222594  0.14447950    -0.16800
C66         C  0.13535897  0.16328989  0.13875573    -0.16500
C67         C  0.13123936  0.12818880  0.18094771    -0.16900
C68         C  0.18917309  0.14032671  0.16116635    -0.16900
C69         C  0.15302880  0.18116553  0.15616089    -0.16400
C70         C  0.14945265  0.14570714  0.19793109    -0.16800
C71         C  0.33538572  0.16175315  0.17805972     0.46000
H72         H  0.32104591  0.17712675  0.19114628    -0.03100
C73         C  0.36846464  0.12507160  0.14802863     0.46000
H74         H  0.38289397  0.10933366  0.13545185    -0.03100
C75         C  0.35548452  0.14196912  0.19802401    -0.16800
C76         C  0.31751660  0.13986085  0.15886748    -0.16500
C77         C  0.35640256  0.17764029  0.15580361    -0.16900
C78         C  0.37275915  0.12246489  0.18214775    -0.16900
C79         C  0.33493356  0.12052850  0.14273593    -0.16400
C80         C  0.37425535  0.15815666  0.14002207    -0.16800
O81         O  0.03397649  0.03210052  0.17392132    -0.71300
O82         O  0.47583912  0.47192748  0.16348771    -0.71500
O83         O  0.47526051  0.03115687  0.17264183    -0.71400
O84         O  0.03603251  0.47361351  0.16558197    -0.71400
O85         O  0.03545501  0.46485186  0.21364448    -0.71300
O86         O  0.47438306  0.02130774  0.22054574    -0.71400
O87         O  0.47600237  0.46195782  0.21131505    -0.71300
O88         O  0.03399949  0.02471475  0.22223945    -0.71500
V89         V  0.00464442  0.00244279  0.17004096     1.35200
V90         V  0.00478009  0.99431150  0.21628998     1.35200
C91         C  0.04346803  0.03904798  0.19955682     0.77900
C92         C  0.46592589  0.45670720  0.18531157     0.78000
C93         C  0.46477580  0.03638443  0.19828613     0.77900
C94         C  0.04638461  0.45950462  0.18812905     0.77800
O95         O  0.03342596  0.47808209  0.33404829    -0.71300
O96         O  0.47115409  0.03412238  0.34121733    -0.71500
O97         O  0.47563404  0.47512184  0.33213592    -0.71400
O98         O  0.03120887  0.03590085  0.34136699    -0.71400
O99         O  0.03321766  0.04457015  0.29331575    -0.71300
O100        O  0.47485683  0.48601177  0.28442786    -0.71400
O101        O  0.47350714  0.04661268  0.29404526    -0.71300
O102        O  0.03460532  0.48596765  0.28581098    -0.71500
V103        V  0.00220224  0.00606771  0.33416064     1.35200
V104        V  0.00340733  0.01474387  0.28800890     1.35200
C105        C  0.04424379  0.47194358  0.30874903     0.77900
C106        C  0.46184444  0.05027551  0.31963222     0.78000
C107        C  0.46509130  0.47067892  0.30626826     0.77900
C108        C  0.04203899  0.05051027  0.31957794     0.77800
O109        O  0.21897327  0.47721179  0.47466896    -0.71300
O110        O  0.21572831  0.03362096  0.03646726    -0.71500
O111        O  0.21796109  0.47332522  0.03531248    -0.71400
O112        O  0.21468038  0.03742990  0.47606605    -0.71400
O113        O  0.16664261  0.03981927  0.48219453    -0.71300
O114        O  0.17022462  0.46873072  0.02796603    -0.71400
O115        O  0.16770565  0.02788700  0.03968201    -0.71300
O116        O  0.17121302  0.48345491  0.46835649    -0.71500
V117        V  0.21557956  0.00523006  0.00498054     1.35200
V118        V  0.16920039  0.00570940  0.00367837     1.35200
C119        C  0.19541750  0.47147327  0.46008976     0.77900
C120        C  0.19145840  0.03928610  0.04969120     0.78000
C121        C  0.19393490  0.45938246  0.04035859     0.77900
C122        C  0.18999335  0.05033876  0.47043371     0.77800
O123        O  0.47368708  0.16415443  0.03386497    -0.71300
O124        O  0.03502140  0.17819113  0.47725979    -0.71500
O125        O  0.03592868  0.16691267  0.03586875    -0.71400
O126        O  0.47633695  0.17348991  0.47453084    -0.71400
O127        O  0.47137847  0.22080151  0.48429263    -0.71300
O128        O  0.03473594  0.21499120  0.04247190    -0.71400
O129        O  0.03145183  0.22630817  0.48313169    -0.71300
O130        O  0.47315904  0.21144655  0.04441163    -0.71500
V131        V  0.00597687  0.17150504  0.00617872     1.35200
V132        V  0.00360155  0.21754568  0.01326485     1.35200
C133        C  0.46300720  0.18539344  0.04901558     0.77900
C134        C  0.04315059  0.20423569  0.46997306     0.78000
C135        C  0.04608157  0.18967690  0.04880641     0.77900
C136        C  0.46378344  0.19833873  0.46916421     0.77800
O137        O  0.33795763  0.48150176  0.46696916    -0.71300
O138        O  0.33613523  0.02638290  0.03817149    -0.71500
O139        O  0.34051632  0.46805164  0.02484346    -0.71400
O140        O  0.33507775  0.04082911  0.47954871    -0.71400
O141        O  0.28726899  0.03578982  0.47314852    -0.71300
O142        O  0.29251551  0.47200318  0.03056797    -0.71400
O143        O  0.28818723  0.03278100  0.03390738    -0.71300
O144        O  0.28999179  0.47549528  0.47034437    -0.71500
V145        V  0.33538345  0.00492715  0.00189875     1.35200
V146        V  0.28899589  0.00499354  0.00162027     1.35200
C147        C  0.31428297  0.46988265  0.45709403     0.77900
C148        C  0.31227552  0.03773768  0.04796146     0.78000
C149        C  0.31675388  0.45845386  0.03660279     0.77900
C150        C  0.31104825  0.04996564  0.46754882     0.77800
O151        O  0.47704521  0.34272899  0.47020215    -0.71300
O152        O  0.03245146  0.33253888  0.03653216    -0.71500
O153        O  0.03764184  0.34324226  0.47860756    -0.71400
O154        O  0.47342366  0.33222436  0.03020008    -0.71400
O155        O  0.47756602  0.28393512  0.02616780    -0.71300
O156        O  0.03434295  0.29643245  0.46660323    -0.71400
O157        O  0.03743653  0.28541145  0.02605712    -0.71300
O158        O  0.47324953  0.29443790  0.46663845    -0.71500
V159        V  0.00627224  0.33691447  0.00353766     1.35200
V160        V  0.00700657  0.29094552  0.99623631     1.35200
C161        C  0.46535170  0.32039284  0.45786293     0.77900
C162        C  0.04436193  0.30743925  0.04219676     0.78000
C163        C  0.04653365  0.32167436  0.46284541     0.77900
C164        C  0.46549485  0.30629812  0.03839994     0.77800
C165        C  0.32405582  0.09785343  0.12114025    -0.05000
C166        C  0.33683863  0.06913183  0.12226469    -0.32400
C167        C  0.33186365  0.04877302  0.09924527     0.36800
C168        C  0.31332935  0.05672710  0.07478283    -0.05300
C169        C  0.29887400  0.08462803  0.07455702    -0.32300
C170        C  0.30434465  0.10534434  0.09734210     0.36800
H171        H  0.35180677  0.06286631  0.14047720     0.17100
O172        O  0.34548097  0.02119657  0.10066268    -0.59800
H173        H  0.28501541  0.09122544  0.05559276     0.17100
O174        O  0.29282541  0.13374316  0.09445320    -0.59900
H175        H  0.27089292  0.13151390  0.09635488     0.44100
H176        H  0.36609543  0.02451404  0.09337353     0.44100
C177        C  0.39674149  0.16649533  0.11673308    -0.05000
C178        C  0.39674526  0.15102642  0.08950142    -0.32400
C179        C  0.41780981  0.15732495  0.06719974     0.36800
C180        C  0.43947665  0.17960065  0.07170527    -0.05300
C181        C  0.43922761  0.19548506  0.09870122    -0.32300
C182        C  0.41855629  0.18863337  0.12137466     0.36800
H183        H  0.38014794  0.13401225  0.08538024     0.17100
O184        O  0.41687545  0.14161678  0.04097997    -0.59800
H185        H  0.45587625  0.21246117  0.10272878     0.17100
O186        O  0.42046021  0.20311991  0.14822248    -0.59900
H187        H  0.43494835  0.19124156  0.16041086     0.44100
H188        H  0.40558406  0.15457888  0.02664296     0.44100
C189        C  0.39586939  0.10229265  0.19476769    -0.05000
C190        C  0.42567739  0.11074769  0.19127176    -0.32400
C191        C  0.44860024  0.08957603  0.19413475     0.36800
C192        C  0.44189097  0.05970387  0.20150030    -0.05300
C193        C  0.41226007  0.05157051  0.20697822    -0.32300
C194        C  0.38911428  0.07263033  0.20322917     0.36800
H195        H  0.43100048  0.13332711  0.18399820     0.17100
O196        O  0.47740040  0.09794035  0.18830740    -0.59800
H197        H  0.40685369  0.02840497  0.21182175     0.17100
O198        O  0.36001618  0.06334578  0.20453422    -0.59900
H199        H  0.35736540  0.05483711  0.22501309     0.44100
H200        H  0.47944065  0.09685550  0.16619492     0.44100
C201        C  0.22206712  0.13942825  0.16088331    -0.05000
C202        C  0.23737337  0.16586840  0.15411870    -0.32400
C203        C  0.26847871  0.16620359  0.15340947     0.36800
C204        C  0.28464933  0.13973554  0.15941754    -0.05300
C205        C  0.26943080  0.11334735  0.16679023    -0.32300
C206        C  0.23820890  0.11303010  0.16752605     0.36800
H207        H  0.22514579  0.18627370  0.14894444     0.17100
O208        O  0.28286591  0.19204924  0.14520868    -0.59800
H209        H  0.28179961  0.09308309  0.17229472     0.17100
O210        O  0.22370383  0.08739373  0.17618180    -0.59900
H211        H  0.22780676  0.07267147  0.16023770     0.44100
H212        H  0.28125596  0.20535946  0.16276305     0.44100
C213        C  0.07082848  0.18620318  0.07046103    -0.05000
C214        C  0.09264896  0.16424917  0.06537562    -0.32400
C215        C  0.11501394  0.15834039  0.08656872     0.36800
C216        C  0.11520987  0.17361448  0.11402351    -0.05300
C217        C  0.09393844  0.19632404  0.11861038    -0.32300
C218        C  0.07220535  0.20307251  0.09683180     0.36800
H219        H  0.09226651  0.15145700  0.04489019     0.17100
O220        O  0.13618341  0.13702103  0.08045567    -0.59800
H221        H  0.09295326  0.20784615  0.13963073     0.17100
O222        O  0.05157292  0.22512599  0.10224681    -0.59900
H223        H  0.03439043  0.21472921  0.11158649     0.44100
H224        H  0.15297863  0.14816519  0.07127951     0.44100
C225        C  0.19046797  0.05887821  0.07599177    -0.05000
C226        C  0.17301624  0.05055939  0.10073299    -0.32400
C227        C  0.16862313  0.07030970  0.12442570     0.36800
C228        C  0.18125425  0.09903862  0.12325718    -0.05300
C229        C  0.20027302  0.10667409  0.09943903    -0.32300
C230        C  0.20503694  0.08670484  0.07591907     0.36800
H231        H  0.16235869  0.02885924  0.10144691     0.17100
O232        O  0.15220693  0.06134110  0.14883904    -0.59800
H233        H  0.21000205  0.12877750  0.09815919     0.17100
O234        O  0.22241448  0.09532056  0.05210966    -0.59900
H235        H  0.20855257  0.10546956  0.03780123     0.44100
H236        H  0.13115541  0.06112487  0.14187668     0.44100
C237        C  0.06417881  0.06424880  0.20184473    -0.05000
C238        C  0.05700500  0.09038767  0.18562565    -0.32400
C239        C  0.07825709  0.11251536  0.18081759     0.36800
C240        C  0.10721905  0.10876082  0.19242615    -0.05300
C241        C  0.11392371  0.08371779  0.21070714    -0.32300
C242        C  0.09247687  0.06134048  0.21542911     0.36800
H243        H  0.03527236  0.09289476  0.17513876     0.17100
O244        O  0.07085971  0.13739148  0.16390506    -0.59800
H245        H  0.13632606  0.08050275  0.21946169     0.17100
O246        O  0.10008461  0.03585524  0.23122540    -0.59900
H247        H  0.10865365  0.02212011  0.21618482     0.44100
H248        H  0.06942161  0.13039056  0.14292156     0.44100
C249        C  0.35550500  0.27416069  0.14820607    -0.05000
C250        C  0.35332240  0.25659108  0.12236854    -0.32400
C251        C  0.35367023  0.22522500  0.12415072     0.36800
C252        C  0.35570312  0.21079907  0.15233574    -0.05300
C253        C  0.35501471  0.22826947  0.17817353    -0.32300
C254        C  0.35458355  0.25948757  0.17638203     0.36800
H255        H  0.35016962  0.26702300  0.10069385     0.17100
O256        O  0.34984586  0.20896106  0.09852082    -0.59800
H257        H  0.35458450  0.21782131  0.20009565     0.17100
O258        O  0.35357909  0.27521233  0.20248617    -0.59900
H259        H  0.33325472  0.27205062  0.21063636     0.44100
H260        H  0.36681234  0.21427000  0.08529145     0.44100
C261        C  0.44292829  0.30281881  0.06202187    -0.05000
C262        C  0.45061261  0.30910241  0.09180032    -0.32400
C263        C  0.42844083  0.31248236  0.11362326     0.36800
C264        C  0.39814940  0.30988298  0.10566998    -0.05300
C265        C  0.39071815  0.30217579  0.07611541    -0.32300
C266        C  0.41291810  0.29792025  0.05454045     0.36800
H267        H  0.47370945  0.31295929  0.09778522     0.17100
O268        O  0.43641331  0.32023692  0.14223031    -0.59800
H269        H  0.36760712  0.30139318  0.06911888     0.17100
O270        O  0.40484735  0.29178519  0.02556934    -0.59900
H271        H  0.40861374  0.27004156  0.02333094     0.44100
H272        H  0.44045819  0.34201372  0.14116300     0.44100
C273        C  0.32756428  0.38473110  0.09837614    -0.05000
C274        C  0.31006236  0.40954453  0.10636568    -0.32400
C275        C  0.30509844  0.43320737  0.08589053     0.36800
C276        C  0.31785877  0.43229512  0.05709058    -0.05300
C277        C  0.33429978  0.40702592  0.04875677    -0.32300
C278        C  0.33887297  0.38326262  0.06898185     0.36800
H279        H  0.30177740  0.41143930  0.12906090     0.17100
O280        O  0.29030924  0.45831987  0.09523870    -0.59800
H281        H  0.34413316  0.40596001  0.02661697     0.17100
O282        O  0.35527743  0.35905708  0.06003424    -0.59900
H283        H  0.34061821  0.34554673  0.05057040     0.44100
H284        H  0.26982761  0.45649904  0.08701438     0.44100
C285        C  0.44288367  0.43368758  0.18006687    -0.05000
C286        C  0.42173977  0.43839075  0.15713160    -0.32400
C287        C  0.40017441  0.41678406  0.15071972     0.36800
C288        C  0.39970091  0.38951005  0.16700578    -0.05300
C289        C  0.42102148  0.38480870  0.18985858    -0.32300
C290        C  0.44209202  0.40679356  0.19680625     0.36800
H291        H  0.42169241  0.45913476  0.14425807     0.17100
O292        O  0.37889054  0.42311135  0.12930101    -0.59800
H293        H  0.42201993  0.36375212  0.20190075     0.17100
O294        O  0.46283200  0.40106576  0.21888137    -0.59900
H295        H  0.45214285  0.40414295  0.23782472     0.44100
H296        H  0.38955378  0.42304873  0.10984740     0.44100
C297        C  0.15343303  0.27692316  0.15017116    -0.05000
C298        C  0.13439608  0.26228384  0.17031733    -0.32400
C299        C  0.13527795  0.23107446  0.17344482     0.36800
C300        C  0.15346480  0.21413617  0.15437073    -0.05300
C301        C  0.17255955  0.22870875  0.13420657    -0.32300
C302        C  0.17336900  0.26002896  0.13282258     0.36800
H303        H  0.11898088  0.27504396  0.18377400     0.17100
O304        O  0.11862958  0.21716892  0.19529909    -0.59800
H305        H  0.18716576  0.21580265  0.11995529     0.17100
O306        O  0.19345370  0.27393644  0.11426707    -0.59900
H307        H  0.21151393  0.27686786  0.12680184     0.44100
H308        H  0.09745167  0.22125605  0.19008551     0.44100
C309        C  0.22379063  0.34937255  0.14349317    -0.05000
C310        C  0.24004720  0.35493262  0.16972544    -0.32400
C311        C  0.27132434  0.35510749  0.16949623     0.36800
C312        C  0.28692906  0.34964287  0.14269842    -0.05300
C313        C  0.27062250  0.34386865  0.11646362    -0.32300
C314        C  0.23929383  0.34375637  0.11667391     0.36800
H315        H  0.22841156  0.35950014  0.19045285     0.17100
O316        O  0.28640733  0.36182290  0.19533498    -0.59800
H317        H  0.28222165  0.33878407  0.09585576     0.17100
O318        O  0.22404471  0.33643242  0.09105705    -0.59900
H319        H  0.22830206  0.35269752  0.07635531     0.44100
H320        H  0.28419500  0.34404274  0.20867597     0.44100
C321        C  0.11111025  0.31392044  0.10998142    -0.05000
C322        C  0.08161309  0.32221331  0.11604998    -0.32400
C323        C  0.05917762  0.31818213  0.09470014     0.36800
C324        C  0.06594406  0.30496141  0.06705706    -0.05300
C325        C  0.09498322  0.29440946  0.06184700    -0.32300
C326        C  0.11773585  0.29938428  0.08292528     0.36800
H327        H  0.07632436  0.33367777  0.13665981     0.17100
O328        O  0.03081957  0.32821699  0.10055582    -0.59800
H329        H  0.10055966  0.28470849  0.04042006     0.17100
O330        O  0.14657934  0.29215650  0.07580530    -0.59900
H331        H  0.15468083  0.31021412  0.06565188     0.44100
H332        H  0.03142274  0.35019964  0.09728081     0.44100
C333        C  0.18181235  0.38764574  0.10323683    -0.05000
C334        C  0.16987915  0.38589759  0.07421151    -0.32400
C335        C  0.17527994  0.40838365  0.05295685     0.36800
C336        C  0.19272022  0.43324368  0.06064413    -0.05300
C337        C  0.20553202  0.43460070  0.08933967    -0.32300
C338        C  0.19992248  0.41213800  0.11076080     0.36800
H339        H  0.15569433  0.36733682  0.06823845     0.17100
O340        O  0.16245649  0.40643520  0.02504320    -0.59800
H341        H  0.21805999  0.45412580  0.09582921     0.17100
O342        O  0.21058524  0.41536225  0.13941506    -0.59900
H343        H  0.19412749  0.42502717  0.15059747     0.44100
H344        H  0.17851780  0.39890360  0.01183347     0.44100
C345        C  0.07028533  0.43695369  0.18436336    -0.05000
C346        C  0.06910289  0.40958598  0.20015744    -0.32400
C347        C  0.08993969  0.38670875  0.19453161     0.36800
C348        C  0.11283775  0.39147127  0.17342468    -0.05300
C349        C  0.11445011  0.41920237  0.15840398    -0.32300
C350        C  0.09331619  0.44170439  0.16349714     0.36800
H351        H  0.05115904  0.40540475  0.21585918     0.17100
O352        O  0.08637999  0.35915300  0.20793537    -0.59800
H353        H  0.13198835  0.42329864  0.14221914     0.17100
O354        O  0.09568651  0.46852714  0.14838145    -0.59900
H355        H  0.08749237  0.46488200  0.12805752     0.44100
H356        H  0.08946022  0.36234522  0.22971693     0.44100
C357        C  0.15228872  0.36294118  0.27962148    -0.05000
C358        C  0.14837803  0.33459433  0.26722133    -0.32400
C359        C  0.14866744  0.33052935  0.23625106     0.36800
C360        C  0.15311034  0.35505120  0.21682906    -0.05300
C361        C  0.15843048  0.38329933  0.22903868    -0.32300
C362        C  0.15830833  0.38737062  0.26026940     0.36800
H363        H  0.14549603  0.31525768  0.28156842     0.17100
O364        O  0.14345428  0.30261293  0.22521191    -0.59800
H365        H  0.16323373  0.40213319  0.21431510     0.17100
O366        O  0.16684276  0.41436374  0.27169843    -0.59900
H367        H  0.15420535  0.42975118  0.26150382     0.44100
H368        H  0.16265959  0.29164638  0.22743001     0.44100
C369        C  0.11273880  0.33999120  0.39551050    -0.01200
C370        C  0.09011517  0.31908425  0.39028307    -0.32400
C371        C  0.06943641  0.31166893  0.41257460     0.36800
C372        C  0.07017631  0.32633742  0.44028585    -0.05300
C373        C  0.09289313  0.34706813  0.44575947    -0.32300
C374        C  0.11425050  0.35368672  0.42379881     0.36800
H375        H  0.08764311  0.30915339  0.36856362     0.17100
O376        O  0.04742274  0.29149156  0.40630194    -0.59800
H377        H  0.09413278  0.35817963  0.46718840     0.17100
O378        O  0.13702742  0.37288399  0.43052432    -0.59900
H379        H  0.12769445  0.39302919  0.43151362     0.44100
H380        H  0.05663877  0.27159419  0.41017012     0.44100
C381        C  0.11293338  0.40598716  0.31719113    -0.05000
C382        C  0.12019726  0.43623713  0.31306505    -0.32400
C383        C  0.09795418  0.45762609  0.30697761     0.36800
C384        C  0.06784729  0.44911148  0.30682511    -0.05300
C385        C  0.06051107  0.41879361  0.31032514    -0.32300
C386        C  0.08291432  0.39720454  0.31522994     0.36800
H387        H  0.14307041  0.44347462  0.31557553     0.17100
O388        O  0.10561819  0.48713474  0.30361731    -0.59800
H389        H  0.03731525  0.41207152  0.31064683     0.17100
O390        O  0.07518317  0.36783823  0.31973420    -0.59900
H391        H  0.07087980  0.36594929  0.34148070     0.44100
H392        H  0.11015869  0.48972988  0.28197959     0.44100
C393        C  0.18534396  0.40830655  0.38925030    -0.05000
C394        C  0.17446928  0.43765077  0.38596727    -0.32400
C395        C  0.17941950  0.45889354  0.40811372     0.36800
C396        C  0.19540908  0.45103522  0.43429061    -0.05300
C397        C  0.20805543  0.42224814  0.43688144    -0.32300
C398        C  0.20299590  0.40081354  0.41457406     0.36800
H399        H  0.16094443  0.44381894  0.36666853     0.17100
O400        O  0.16742130  0.48703197  0.40454194    -0.59800
H401        H  0.22013867  0.41576674  0.45707832     0.17100
O402        O  0.21273919  0.37195954  0.41917923    -0.59900
H403        H  0.23451266  0.37244915  0.41541763     0.44100
H404        H  0.18371165  0.49932852  0.39593001     0.44100
C405        C  0.14750387  0.15409348  0.29359091    -0.05000
C406        C  0.17293094  0.14293524  0.27926133    -0.32400
C407        C  0.17361795  0.14000393  0.24813984     0.36800
C408        C  0.14832571  0.14761830  0.23091934    -0.05300
C409        C  0.12255086  0.15822253  0.24516008    -0.32300
C410        C  0.12207527  0.16161553  0.27639818     0.36800
H411        H  0.19181040  0.13512576  0.29228990     0.17100
O412        O  0.19862576  0.12839578  0.23484202    -0.59800
H413        H  0.10304857  0.16442986  0.23198194     0.17100
O414        O  0.09714792  0.17318484  0.28984345    -0.59900
H415        H  0.08248076  0.15665981  0.29017055     0.44100
H416        H  0.21280007  0.14529222  0.23332162     0.44100
C417        C  0.14794897  0.29584925  0.35659590    -0.05000
C418        C  0.16542947  0.28033274  0.37787567    -0.32400
C419        C  0.16512276  0.24899363  0.37938230     0.36800
C420        C  0.14710274  0.23279541  0.35954847    -0.05300
C421        C  0.12918085  0.24820258  0.33861810    -0.32300
C422        C  0.12924440  0.27962893  0.33722951     0.36800
H423        H  0.17956020  0.29256443  0.39314557     0.17100
O424        O  0.18251565  0.23432040  0.40030301    -0.59800
H425        H  0.11498776  0.23585049  0.32348832     0.17100
O426        O  0.11094434  0.29441143  0.31707455    -0.59900
H427        H  0.09037163  0.28742059  0.32118579     0.44100
H428        H  0.20187555  0.23089197  0.39016666     0.44100
C429        C  0.10801187  0.11775373  0.33770406    -0.05000
C430        C  0.08008837  0.11825504  0.35193037    -0.32400
C431        C  0.05854988  0.09652891  0.34611126     0.36800
C432        C  0.06423050  0.07410875  0.32504965    -0.05300
C433        C  0.09195150  0.07334464  0.31065992    -0.32300
C434        C  0.11409858  0.09448817  0.31732920     0.36800
H435        H  0.07495551  0.13543222  0.36800424     0.17100
O436        O  0.03166058  0.09779549  0.36065405    -0.59800
H437        H  0.09695570  0.05547422  0.29523763     0.17100
O438        O  0.14226734  0.09055381  0.30605125    -0.59900
H439        H  0.13987801  0.08961833  0.28393369     0.44100
H440        H  0.03510078  0.08744263  0.38019512     0.44100
C441        C  0.18802111  0.07670960  0.45026918    -0.05000
C442        C  0.20305881  0.07667823  0.42275575    -0.32400
C443        C  0.19862200  0.09989253  0.40162401     0.36800
C444        C  0.17920201  0.12383110  0.40823482    -0.05300
C445        C  0.16528315  0.12439062  0.43639571    -0.32300
C446        C  0.16918166  0.10093656  0.45712477     0.36800
H447        H  0.21670549  0.05760502  0.41688010     0.17100
O448        O  0.21097064  0.09745879  0.37365651    -0.59800
H449        H  0.15016746  0.14245442  0.44187785     0.17100
O450        O  0.15433456  0.10179140  0.48397504    -0.59900
H451        H  0.13355375  0.09585713  0.47929077     0.44100
H452        H  0.23270021  0.10037528  0.37662890     0.44100
C453        C  0.10853511  0.19653321  0.40193592    -0.05000
C454        C  0.11742541  0.19909342  0.43196888    -0.32400
C455        C  0.09633377  0.20456003  0.45435636     0.36800
C456        C  0.06600473  0.20776068  0.44670383    -0.05300
C457        C  0.05741937  0.20744432  0.41640268    -0.32300
C458        C  0.07859292  0.20199944  0.39393895     0.36800
H459        H  0.14054000  0.19531554  0.43822820     0.17100
O460        O  0.10529373  0.20511817  0.48381740    -0.59800
H461        H  0.03405771  0.20968546  0.41032559     0.17100
O462        O  0.06986631  0.20113743  0.36438777    -0.59900
H463        H  0.05544235  0.18447888  0.36297138     0.44100
H464        H  0.10347075  0.18419274  0.49124414     0.44100
C465        C  0.35625230  0.14548293  0.23099328    -0.05000
C466        C  0.36937653  0.17106170  0.24308833    -0.32400
C467        C  0.36773903  0.17669551  0.27391029     0.36800
C468        C  0.35487125  0.15534330  0.29322782    -0.05300
C469        C  0.34161892  0.12980594  0.28120268    -0.32300
C470        C  0.34126180  0.12540059  0.25015721     0.36800
H471        H  0.38103493  0.18664698  0.22865484     0.17100
O472        O  0.37909537  0.20276828  0.28513451    -0.59800
H473        H  0.33086516  0.11369827  0.29590579     0.17100
O474        O  0.32554119  0.10192380  0.23875040    -0.59900
H475        H  0.30542038  0.11015709  0.23408126     0.44100
H476        H  0.40076236  0.20241177  0.28072034     0.44100
C477        C  0.22006008  0.16329396  0.36603343    -0.05000
C478        C  0.23568141  0.16143488  0.33888314    -0.32400
C479        C  0.26691054  0.16087363  0.33812836     0.36800
C480        C  0.28346442  0.16296561  0.36488448    -0.05300
C481        C  0.26800737  0.16636826  0.39204884    -0.32300
C482        C  0.23661843  0.16674114  0.39276348     0.36800
H483        H  0.22377787  0.16002133  0.31796439     0.17100
O484        O  0.28098353  0.15660392  0.31123210    -0.59800
H485        H  0.28030313  0.16914139  0.41278875     0.17100
O486        O  0.22242193  0.17102338  0.41957582    -0.59900
H487        H  0.22515566  0.19247559  0.42418226     0.44100
H488        H  0.27827933  0.17561843  0.29978368     0.44100
C489        C  0.32329947  0.12338625  0.40626415    -0.05000
C490        C  0.30584140  0.09894206  0.39759998    -0.32400
C491        C  0.29985018  0.07545810  0.41802529     0.36800
C492        C  0.31162059  0.07636542  0.44734576    -0.05300
C493        C  0.32777478  0.10149100  0.45628793    -0.32300
C494        C  0.33361367  0.12486331  0.43604269     0.36800
H495        H  0.29830341  0.09724029  0.37455690     0.17100
O496        O  0.28547129  0.05030776  0.40833575    -0.59800
H497        H  0.33681611  0.10252334  0.47884490     0.17100
O498        O  0.34964887  0.14905487  0.44547690    -0.59900
H499        H  0.37048125  0.14174733  0.44788237     0.44100
H500        H  0.26584594  0.05727456  0.40062162     0.44100
C501        C  0.43808572  0.07295955  0.32460125    -0.05000
C502        C  0.43863716  0.10037253  0.30895002    -0.32400
C503        C  0.41764354  0.12304922  0.31498125     0.36800
C504        C  0.39476576  0.11798624  0.33614628    -0.05300
C505        C  0.39413946  0.09037056  0.35150812    -0.32300
C506        C  0.41563339  0.06817793  0.34618803     0.36800
H507        H  0.45633592  0.10483745  0.29304269     0.17100
O508        O  0.42151777  0.15090451  0.30241500    -0.59800
H509        H  0.37711153  0.08611525  0.36819800     0.17100
O510        O  0.41475211  0.04203682  0.36262781    -0.59900
H511        H  0.39995570  0.02936405  0.35225722     0.44100
H512        H  0.42256456  0.14787348  0.28039175     0.44100
C513        C  0.44120954  0.20048399  0.44534052    -0.05000
C514        C  0.44890513  0.19062767  0.41669161    -0.32400
C515        C  0.42707352  0.18716040  0.39466491     0.36800
C516        C  0.39710987  0.19355942  0.40116466    -0.05300
C517        C  0.38949449  0.20509831  0.42925765    -0.32300
C518        C  0.41139026  0.20834886  0.45154695     0.36800
H519        H  0.47175427  0.18429094  0.41183699     0.17100
O520        O  0.43489044  0.17545861  0.36750429    -0.59800
H521        H  0.36630287  0.20936812  0.43460508     0.17100
O522        O  0.40281927  0.21561289  0.48009433    -0.59900
H523        H  0.41214203  0.23516173  0.48426875     0.44100
H524        H  0.43944314  0.19301608  0.35451609     0.44100
C525        C  0.36139017  0.35475700  0.21239930    -0.05000
C526        C  0.34584049  0.37885420  0.22491303    -0.32400
C527        C  0.34469603  0.38220907  0.25610998     0.36800
C528        C  0.35925185  0.36132356  0.27506190    -0.05300
C529        C  0.37539840  0.33772932  0.26255485    -0.32300
C530        C  0.37714545  0.33474037  0.23136866     0.36800
H531        H  0.33428591  0.39483741  0.21045764     0.17100
O532        O  0.32911747  0.40574854  0.26788948    -0.59800
H533        H  0.38719440  0.32196722  0.27700163     0.17100
O534        O  0.39471447  0.31261880  0.21951227    -0.59900
H535        H  0.41536315  0.31672127  0.22632134     0.44100
H536        H  0.30895956  0.39773663  0.27213395     0.44100
C537        C  0.28698635  0.36687679  0.34686828    -0.05000
C538        C  0.27172055  0.33982263  0.35071851    -0.32400
C539        C  0.24060648  0.33917964  0.35283970     0.36800
C540        C  0.22401078  0.36590354  0.35037612    -0.05300
C541        C  0.23907599  0.39288523  0.34485796    -0.32300
C542        C  0.27028422  0.39349614  0.34294909     0.36800
H543        H  0.28383070  0.31901323  0.35255499     0.17100
O544        O  0.22675449  0.31250895  0.35892461    -0.59800
H545        H  0.22659000  0.41351230  0.34160907     0.17100
O546        O  0.28415649  0.42011525  0.33676208    -0.59900
H547        H  0.28406941  0.42200539  0.31457169     0.44100
H548        H  0.22842789  0.30074199  0.34029211     0.44100
C549        C  0.35822873  0.23299181  0.36043525    -0.05000
C550        C  0.38364050  0.24694805  0.34852779    -0.32400
C551        C  0.38487480  0.27827198  0.34558744     0.36800
C552        C  0.36060862  0.29591159  0.35495503    -0.05300
C553        C  0.33602118  0.28190865  0.36833164    -0.32300
C554        C  0.33445207  0.25070178  0.37062168     0.36800
H555        H  0.40226117  0.23351247  0.34095539     0.17100
O556        O  0.40985229  0.29147914  0.33381457    -0.59800
H557        H  0.31827741  0.29521485  0.37768525     0.17100
O558        O  0.31004333  0.23772380  0.38378820    -0.59900
H559        H  0.29518588  0.23573240  0.36739542     0.44100
H560        H  0.40936344  0.28697910  0.31210156     0.44100
C561        C  0.31572252  0.45013028  0.43089544    -0.05000
C562        C  0.30195213  0.42198444  0.43151016    -0.32400
C563        C  0.30805183  0.40095729  0.40913290     0.36800
C564        C  0.32729062  0.40847268  0.38518578    -0.05300
C565        C  0.33960218  0.43723546  0.38403005    -0.32300
C566        C  0.33395443  0.45792784  0.40647338     0.36800
H567        H  0.28809247  0.41557979  0.45036584     0.17100
O568        O  0.29669503  0.37265498  0.41202368    -0.59800
H569        H  0.35457475  0.44348206  0.36616673     0.17100
O570        O  0.34728006  0.48546060  0.40487090    -0.59900
H571        H  0.33191446  0.49908468  0.39610878     0.44100
H572        H  0.31303106  0.36042232  0.42106009     0.44100
C573        C  0.40081579  0.33993112  0.38874151    -0.05000
C574        C  0.39380373  0.31982260  0.41213914    -0.32400
C575        C  0.41503137  0.31217625  0.43421969     0.36800
C576        C  0.44347094  0.32523164  0.43351205    -0.05300
C577        C  0.45044384  0.34541180  0.41034473    -0.32300
C578        C  0.42945607  0.35281135  0.38811329     0.36800
H579        H  0.37159934  0.31057449  0.41382046     0.17100
O580        O  0.40721750  0.29336747  0.45734043    -0.59800
H581        H  0.47229200  0.35567066  0.40957544     0.17100
O582        O  0.43745088  0.37215569  0.36547962    -0.59900
H583        H  0.43935593  0.39202378  0.37492996     0.44100
H584        H  0.40599732  0.27333030  0.44820779     0.44100
C585        C  0.39636364  0.40568832  0.31020617    -0.05000
C586        C  0.38926935  0.43616849  0.31178348    -0.32400
C587        C  0.41136026  0.45781909  0.30802294     0.36800
C588        C  0.44093742  0.44900883  0.30253805    -0.05300
C589        C  0.44756560  0.41869887  0.29809252    -0.32300
C590        C  0.42524358  0.39692961  0.30152616     0.36800
H591        H  0.36681521  0.44312733  0.31729610     0.17100
O592        O  0.40438534  0.48738304  0.31214441    -0.59800
H593        H  0.47028858  0.41180242  0.29344168     0.17100
O594        O  0.43180653  0.36719280  0.29736880    -0.59900
H595        H  0.44925198  0.36241609  0.31035081     0.44100
H596        H  0.39525807  0.49426885  0.29292903     0.44100
C597        C  0.33967632  0.34375006  0.82867521     0.46000
H598        H  0.32557953  0.32797136  0.81587940    -0.03100
C599        C  0.37310430  0.38065311  0.85785010     0.46000
H600        H  0.38711205  0.39662170  0.87033954    -0.03100
C601        C  0.35953444  0.36327938  0.80836615    -0.16800
C602        C  0.32170923  0.36625953  0.84755556    -0.16500
C603        C  0.36146436  0.32813938  0.85084236    -0.16900
C604        C  0.37690296  0.38286701  0.82374888    -0.16900
C605        C  0.33958708  0.38542884  0.86350906    -0.16400
C606        C  0.37955300  0.34765895  0.86605934    -0.16800
C607        C  0.37036870  0.14807445  0.87676521     0.46000
H608        H  0.38456760  0.13428614  0.89215735    -0.03100
C609        C  0.33743772  0.18063971  0.84081730     0.46000
H610        H  0.32365302  0.19478829  0.82541174    -0.03100
C611        C  0.33674512  0.14461123  0.88233870    -0.16800
C612        C  0.37624070  0.18168080  0.87897153    -0.16500
C613        C  0.37494971  0.14070177  0.84358844    -0.16900
C614        C  0.31915585  0.16161794  0.86324707    -0.16900
C615        C  0.35890950  0.19896728  0.86026232    -0.16400
C616        C  0.35749863  0.15788649  0.82461911    -0.16800
C617        C  0.17048058  0.18045572  0.84202840     0.46000
H618        H  0.18404470  0.19386519  0.82602115    -0.03100
C619        C  0.13806358  0.14985167  0.87937314     0.46000
H620        H  0.12422161  0.13684124  0.89545994    -0.03100
C621        C  0.14967609  0.15776007  0.82673322    -0.16800
C622        C  0.18921336  0.16190733  0.86480916    -0.16500
C623        C  0.14980522  0.19986499  0.86142104    -0.16900
C624        C  0.13246041  0.14152149  0.84649343    -0.16900
C625        C  0.17182846  0.14537802  0.88427439    -0.16400
C626        C  0.13277358  0.18369520  0.88102964    -0.16800
C627        C  0.14140957  0.38153503  0.86286313     0.46000
H628        H  0.12736012  0.39723818  0.87588982    -0.03100
C629        C  0.17345206  0.34470284  0.83187075     0.46000
H630        H  0.18711495  0.32894357  0.81855295    -0.03100
C631        C  0.17504066  0.38563265  0.86764903    -0.16800
C632        C  0.13550052  0.34850655  0.87066737    -0.16500
C633        C  0.13650490  0.38466612  0.82883173    -0.16900
C634        C  0.19217426  0.36612130  0.85128889    -0.16900
C635        C  0.15189136  0.32899873  0.85376866    -0.16400
C636        C  0.15365325  0.36543983  0.81224804    -0.16800
C637        C  0.17295538  0.33034549  0.66648170     0.46000
H638        H  0.18797044  0.31721573  0.68163401    -0.03100
C639        C  0.13804470  0.36083689  0.63069755     0.46000
H640        H  0.12297823  0.37372310  0.61534385    -0.03100
C641        C  0.15157319  0.35177714  0.68294482    -0.16800
C642        C  0.18977848  0.35034222  0.64393592    -0.16500
C643        C  0.15281604  0.31083784  0.64691314    -0.16900
C644        C  0.13322117  0.36795211  0.66385343    -0.16900
C645        C  0.17121097  0.36657747  0.62524485    -0.16400
C646        C  0.13434386  0.32695207  0.62827336    -0.16800
C647        C  0.36995641  0.35793424  0.62694279     0.46000
H648        H  0.38430227  0.36987810  0.61049793    -0.03100
C649        C  0.33699499  0.32929635  0.66532044     0.46000
H650        H  0.32255057  0.31747168  0.68167205    -0.03100
C651        C  0.33646938  0.36371381  0.62238953    -0.16800
C652        C  0.37360644  0.32376462  0.62578886    -0.16500
C653        C  0.37643975  0.36664743  0.65953902    -0.16900
C654        C  0.31893203  0.34884263  0.64283861    -0.16900
C655        C  0.35595509  0.30819508  0.64573883    -0.16400
C656        C  0.35943232  0.35095163  0.67985242    -0.16800
C657        C  0.13693347  0.13128238  0.64751972     0.46000
H658        H  0.12180039  0.11703517  0.63413139    -0.03100
C659        C  0.17181767  0.16493872  0.67897351     0.46000
H660        H  0.18666410  0.17946209  0.69242505    -0.03100
C661        C  0.17009014  0.12359581  0.64378723    -0.16800
C662        C  0.13409652  0.16466992  0.63942744    -0.16500
C663        C  0.13132126  0.12910409  0.68134533    -0.16900
C664        C  0.18857617  0.14165616  0.66013516    -0.16900
C665        C  0.15219096  0.18242467  0.65642182    -0.16400
C666        C  0.14979100  0.14663774  0.69800148    -0.16800
C667        C  0.33506525  0.16149847  0.67688384     0.46000
H668        H  0.32071633  0.17676612  0.69008659    -0.03100
C669        C  0.36805728  0.12487101  0.64664317     0.46000
H670        H  0.38242466  0.10918841  0.63392604    -0.03100
C671        C  0.35546657  0.14169859  0.69662721    -0.16800
C672        C  0.31710228  0.13957446  0.65774641    -0.16500
C673        C  0.35588557  0.17760133  0.65458618    -0.16900
C674        C  0.37270985  0.12224405  0.68070111    -0.16900
C675        C  0.33447479  0.12020760  0.64162105    -0.16400
C676        C  0.37362029  0.15806772  0.63865228    -0.16800
O677        O  0.03529380  0.03195683  0.67331870    -0.71300
O678        O  0.47393496  0.47425657  0.66420560    -0.71500
O679        O  0.47648451  0.03213033  0.67493805    -0.71400
O680        O  0.03396536  0.47333184  0.66510248    -0.71400
O681        O  0.03410762  0.46410997  0.71309478    -0.71300
O682        O  0.47506653  0.02202387  0.72275600    -0.71400
O683        O  0.47401173  0.46347449  0.71185876    -0.71300
O684        O  0.03553551  0.02384469  0.72153383    -0.71500
V685        V  0.00599096  0.00219765  0.66921432     1.35200
V686        V  0.00613158  0.99363161  0.71538412     1.35200
C687        C  0.04507975  0.03836502  0.69899347     0.77900
C688        C  0.46384975  0.45875301  0.68577867     0.78000
C689        C  0.46562454  0.03719334  0.70045955     0.77900
C690        C  0.04454830  0.45893184  0.68735198     0.77800
O691        O  0.03354483  0.47719679  0.83395686    -0.71300
O692        O  0.47196753  0.03330220  0.83923953    -0.71500
O693        O  0.47377123  0.47636925  0.83116123    -0.71400
O694        O  0.03166529  0.03757872  0.84280079    -0.71400
O695        O  0.03542361  0.04486706  0.79465951    -0.71300
O696        O  0.47483188  0.48645183  0.78330522    -0.71400
O697        O  0.47485094  0.04530724  0.79196668    -0.71300
O698        O  0.03481858  0.48536103  0.78576872    -0.71500
V699        V  0.00379789  0.00673409  0.83523283     1.35200
V700        V  0.00506905  0.01567261  0.78917315     1.35200
C701        C  0.04429228  0.47107329  0.80862711     0.77900
C702        C  0.46273105  0.04901832  0.81731406     0.78000
C703        C  0.46427664  0.47145516  0.80501407     0.77900
C704        C  0.04333292  0.05153228  0.82102473     0.77800
O705        O  0.21873795  0.47679491  0.97485759    -0.71300
O706        O  0.21507338  0.03398747  0.53650038    -0.71500
O707        O  0.21698562  0.47432525  0.53509688    -0.71400
O708        O  0.21702134  0.03708684  0.97608702    -0.71400
O709        O  0.16899115  0.04171683  0.98113175    -0.71300
O710        O  0.16942202  0.46957726  0.52671219    -0.71400
O711        O  0.16749943  0.02599299  0.54085172    -0.71300
O712        O  0.17084830  0.48290979  0.96954330    -0.71500
V713        V  0.21557980  0.00553230  0.50498777     1.35200
V714        V  0.16924326  0.00377967  0.50488982     1.35200
C715        C  0.19493000  0.47106746  0.96071077     0.77900
C716        C  0.19083644  0.03871029  0.55019319     0.78000
C717        C  0.19287170  0.46040629  0.53968123     0.77900
C718        C  0.19307456  0.05114253  0.97002366     0.77800
O719        O  0.47408247  0.16293518  0.53374588    -0.71300
O720        O  0.03598999  0.17664063  0.97687637    -0.71500
O721        O  0.03508264  0.16837248  0.53628997    -0.71400
O722        O  0.47713077  0.17436011  0.97458372    -0.71400
O723        O  0.47079438  0.22146183  0.98458990    -0.71300
O724        O  0.03354015  0.21642583  0.54304415    -0.71400
O725        O  0.03259262  0.22477824  0.98263992    -0.71300
O726        O  0.47355965  0.21031504  0.54396211    -0.71500
V727        V  0.00512311  0.17285402  0.50652909     1.35200
V728        V  0.00248515  0.21886591  0.51374512     1.35200
C729        C  0.46342929  0.18429442  0.54873696     0.77900
C730        C  0.04437913  0.20264454  0.96966771     0.78000
C731        C  0.04499276  0.19116792  0.54938533     0.77900
C732        C  0.46408455  0.19892998  0.96913032     0.77800
O733        O  0.34066296  0.48264405  0.96637764    -0.71300
O734        O  0.33571445  0.02582902  0.53797527    -0.71500
O735        O  0.33738865  0.46759158  0.52552151    -0.71400
O736        O  0.33610711  0.04131036  0.97970818    -0.71400
O737        O  0.28820465  0.03731687  0.97315128    -0.71300
O738        O  0.28935883  0.47188994  0.53091772    -0.71400
O739        O  0.28762378  0.03119266  0.53389532    -0.71300
O740        O  0.29280866  0.47603592  0.97001276    -0.71500
V741        V  0.33529778  0.00440230  0.50169787     1.35200
V742        V  0.28893381  0.00342948  0.50166493     1.35200
C743        C  0.31707905  0.47082624  0.95654719     0.77900
C744        C  0.31164169  0.03664678  0.54784233     0.78000
C745        C  0.31350451  0.45831836  0.53722581     0.77900
C746        C  0.31231600  0.05087878  0.96756054     0.77800
O747        O  0.47869658  0.34241704  0.97064865    -0.71300
O748        O  0.03134162  0.33280994  0.53748952    -0.71500
O749        O  0.03924189  0.34267811  0.97763314    -0.71400
O750        O  0.47104171  0.33292641  0.52958117    -0.71400
O751        O  0.47522451  0.28455067  0.52642238    -0.71300
O752        O  0.03671754  0.29566145  0.96617752    -0.71400
O753        O  0.03617500  0.28581251  0.52636908    -0.71300
O754        O  0.47608158  0.29412531  0.96627405    -0.71500
V755        V  0.00487837  0.33758323  0.50484118     1.35200
V756        V  0.00520915  0.29167357  0.49726476     1.35200
C757        C  0.46779431  0.32001284  0.95771807     0.77900
C758        C  0.04320057  0.30761411  0.54274122     0.78000
C759        C  0.04851534  0.32104705  0.96218749     0.77900
C760        C  0.46302014  0.30712526  0.53807985     0.77800
C761        C  0.32344336  0.09733495  0.62031855    -0.05000
C762        C  0.33584164  0.06845204  0.62192037    -0.32400
C763        C  0.33056903  0.04777011  0.59926443     0.36800
C764        C  0.31238682  0.05570007  0.57455852    -0.05300
C765        C  0.29833639  0.08378426  0.57381827    -0.32300
C766        C  0.30390521  0.10472294  0.59635422     0.36800
H767        H  0.35074443  0.06228298  0.64018432     0.17100
O768        O  0.34358175  0.01992494  0.60123127    -0.59800
H769        H  0.28480358  0.09034066  0.55460676     0.17100
O770        O  0.29276380  0.13322171  0.59299941    -0.59900
H771        H  0.27076195  0.13125627  0.59442997     0.44100
H772        H  0.36426141  0.02262790  0.59387418     0.44100
C773        C  0.39618518  0.16637245  0.61554408    -0.05000
C774        C  0.39591219  0.15135930  0.58806776    -0.32400
C775        C  0.41737599  0.15733867  0.56608759     0.36800
C776        C  0.43974893  0.17872939  0.57125179    -0.05300
C777        C  0.43984072  0.19410423  0.59855088    -0.32300
C778        C  0.41866422  0.18764894  0.62083927     0.36800
H779        H  0.37882994  0.13493568  0.58354696     0.17100
O780        O  0.41613219  0.14225602  0.53950773    -0.59800
H781        H  0.45705147  0.21038451  0.60304883     0.17100
O782        O  0.42072722  0.20161872  0.64795834    -0.59900
H783        H  0.43181571  0.18740719  0.66122080     0.44100
H784        H  0.40396446  0.15516900  0.52587203     0.44100
C785        C  0.39566661  0.10184848  0.69359022    -0.05000
C786        C  0.42545047  0.11115636  0.69350117    -0.32400
C787        C  0.44865023  0.09042158  0.69803493     0.36800
C788        C  0.44212386  0.06006683  0.70330069    -0.05300
C789        C  0.41231042  0.05109637  0.70546395    -0.32300
C790        C  0.38902682  0.07177279  0.70043568     0.36800
H791        H  0.43077924  0.13417156  0.68788983     0.17100
O792        O  0.47767252  0.09972462  0.69591667    -0.59800
H793        H  0.40708316  0.02764714  0.70882496     0.17100
O794        O  0.36010677  0.06191331  0.69933040    -0.59900
H795        H  0.35621262  0.05252385  0.71921105     0.44100
H796        H  0.48167993  0.10131309  0.67408615     0.44100
C797        C  0.22150036  0.14036122  0.65953332    -0.05000
C798        C  0.23715598  0.16616527  0.65118276    -0.32400
C799        C  0.26829981  0.16598956  0.65032048     0.36800
C800        C  0.28417051  0.13973994  0.65799817    -0.05300
C801        C  0.26858813  0.11395775  0.66670948    -0.32300
C802        C  0.23732993  0.11411451  0.66746183     0.36800
H803        H  0.22516605  0.18641049  0.64489062     0.17100
O804        O  0.28301992  0.19100705  0.64030846    -0.59800
H805        H  0.28070127  0.09383771  0.67326541     0.17100
O806        O  0.22246734  0.08912128  0.67731974    -0.59900
H807        H  0.22553687  0.07393624  0.66158966     0.44100
H808        H  0.28320581  0.20482042  0.65753296     0.44100
C809        C  0.06959359  0.18783077  0.57123760    -0.05000
C810        C  0.09235116  0.16701651  0.56557090    -0.32400
C811        C  0.11458289  0.16106065  0.58689388     0.36800
C812        C  0.11379630  0.17518582  0.61493815    -0.05300
C813        C  0.09163693  0.19686333  0.62017140    -0.32300
C814        C  0.06987108  0.20356758  0.59836297     0.36800
H815        H  0.09274782  0.15509793  0.54455648     0.17100
O816        O  0.13657625  0.14073647  0.58033246    -0.59800
H817        H  0.09007487  0.20748742  0.64167117     0.17100
O818        O  0.04810041  0.22430310  0.60443918    -0.59900
H819        H  0.03193141  0.21286219  0.61437664     0.44100
H820        H  0.15428478  0.15291930  0.57512135     0.44100
C821        C  0.18931099  0.05885359  0.57615296    -0.05000
C822        C  0.17042610  0.05160590  0.60014209    -0.32400
C823        C  0.16574298  0.07179328  0.62341502     0.36800
C824        C  0.17966047  0.09995970  0.62269561    -0.05300
C825        C  0.19981962  0.10659351  0.59954683    -0.32300
C826        C  0.20477507  0.08620089  0.57641383     0.36800
H827        H  0.15890132  0.03035667  0.60063029     0.17100
O828        O  0.14786056  0.06369230  0.64705736    -0.59800
H829        H  0.21044271  0.12827485  0.59843052     0.17100
O830        O  0.22335585  0.09396576  0.55326293    -0.59900
H831        H  0.21083276  0.10603756  0.53918922     0.44100
H832        H  0.12729517  0.06284295  0.63878771     0.44100
C833        C  0.06612507  0.06326058  0.70165716    -0.05000
C834        C  0.05767712  0.09087998  0.68896028    -0.32400
C835        C  0.07849440  0.11355792  0.68473261     0.36800
C836        C  0.10830185  0.10883144  0.69332043    -0.05300
C837        C  0.11658413  0.08195121  0.70789949    -0.32300
C838        C  0.09563170  0.05897996  0.71188512     0.36800
H839        H  0.03517765  0.09429346  0.68069387     0.17100
O840        O  0.06982360  0.13992742  0.67106923    -0.59800
H841        H  0.13971548  0.07792620  0.71399023     0.17100
O842        O  0.10472369  0.03179913  0.72342240    -0.59900
H843        H  0.11068720  0.01988376  0.70578430     0.44100
H844        H  0.06838603  0.13545203  0.64937257     0.44100
C845        C  0.35453700  0.27463357  0.64809547    -0.05000
C846        C  0.35273614  0.25723305  0.62206391    -0.32400
C847        C  0.35343168  0.22579856  0.62348027     0.36800
C848        C  0.35531073  0.21097435  0.65149472    -0.05300
C849        C  0.35435004  0.22827507  0.67751375    -0.32300
C850        C  0.35376656  0.25958909  0.67608287     0.36800
H851        H  0.34967424  0.26784198  0.60045515     0.17100
O852        O  0.34999343  0.20985104  0.59760098    -0.59800
H853        H  0.35383638  0.21761403  0.69932680     0.17100
O854        O  0.35289196  0.27506935  0.70236081    -0.59900
H855        H  0.33255982  0.27193121  0.71049050     0.44100
H856        H  0.36723068  0.21523610  0.58476317     0.44100
C857        C  0.44036721  0.30396304  0.56151957    -0.05000
C858        C  0.44844612  0.30867229  0.59149975    -0.32400
C859        C  0.42650703  0.31204956  0.61350409     0.36800
C860        C  0.39616914  0.31087753  0.60550521    -0.05300
C861        C  0.38828014  0.30448396  0.57578458    -0.32300
C862        C  0.41018683  0.30056671  0.55391326     0.36800
H863        H  0.47171122  0.31129717  0.59754922     0.17100
O864        O  0.43480987  0.31823715  0.64241765    -0.59800
H865        H  0.36506930  0.30421177  0.56906547     0.17100
O866        O  0.40181700  0.29597089  0.52473143    -0.59900
H867        H  0.39854934  0.27410872  0.52338013     0.44100
H868        H  0.43847498  0.34009511  0.64257856     0.44100
C869        C  0.32566771  0.38542545  0.59920049    -0.05000
C870        C  0.30829452  0.41023902  0.60748972    -0.32400
C871        C  0.30271013  0.43369093  0.58695347     0.36800
C872        C  0.31452629  0.43237043  0.55778382    -0.05300
C873        C  0.33076424  0.40710641  0.54921988    -0.32300
C874        C  0.33614266  0.38368742  0.56955191     0.36800
H875        H  0.30067849  0.41231703  0.63040706     0.17100
O876        O  0.28847266  0.45902634  0.59653916    -0.59800
H877        H  0.34002808  0.40587631  0.52683758     0.17100
O878        O  0.35265849  0.35964361  0.56046572    -0.59900
H879        H  0.33862441  0.34731346  0.54869287     0.44100
H880        H  0.26774981  0.45734514  0.58896352     0.44100
C881        C  0.44086207  0.43563227  0.68029821    -0.05000
C882        C  0.41916880  0.44043270  0.65787999    -0.32400
C883        C  0.39785082  0.41849199  0.65140673     0.36800
C884        C  0.39810666  0.39087436  0.66719473    -0.05300
C885        C  0.41999295  0.38613480  0.68945647    -0.32300
C886        C  0.44089065  0.40831389  0.69636773     0.36800
H887        H  0.41856319  0.46142846  0.64543635     0.17100
O888        O  0.37618717  0.42474770  0.63036036    -0.59800
H889        H  0.42162716  0.36484748  0.70100406     0.17100
O890        O  0.46245919  0.40231244  0.71756308    -0.59900
H891        H  0.45199610  0.40272652  0.73692928     0.44100
H892        H  0.38654187  0.42478625  0.61073940     0.44100
C893        C  0.15295894  0.27793826  0.64914196    -0.05000
C894        C  0.13400163  0.26372652  0.66962195    -0.32400
C895        C  0.13468600  0.23257851  0.67314052     0.36800
C896        C  0.15276816  0.21532418  0.65426588    -0.05300
C897        C  0.17161795  0.22948678  0.63357762    -0.32300
C898        C  0.17249804  0.26075131  0.63164929     0.36800
H899        H  0.11881875  0.27680180  0.68305675     0.17100
O900        O  0.11811999  0.21905624  0.69530270    -0.59800
H901        H  0.18591359  0.21629731  0.61927556     0.17100
O902        O  0.19222091  0.27428022  0.61242003    -0.59900
H903        H  0.20974130  0.27932963  0.62500335     0.44100
H904        H  0.09699138  0.22431655  0.69097893     0.44100
C905        C  0.22280018  0.35086350  0.64284341    -0.05000
C906        C  0.23873614  0.35657771  0.66921886    -0.32400
C907        C  0.26996462  0.35621398  0.66943974     0.36800
C908        C  0.28576597  0.35007007  0.64296500    -0.05300
C909        C  0.26976450  0.34422334  0.61654708    -0.32300
C910        C  0.23847873  0.34468713  0.61629636     0.36800
H911        H  0.22688028  0.36154588  0.68972464     0.17100
O912        O  0.28481872  0.36302865  0.69537039    -0.59800
H913        H  0.28156669  0.33875050  0.59615768     0.17100
O914        O  0.22342806  0.33736487  0.59056046    -0.59900
H915        H  0.22761269  0.35376753  0.57599183     0.44100
H916        H  0.28254289  0.34526085  0.70871714     0.44100
C917        C  0.11063030  0.31446388  0.60923960    -0.05000
C918        C  0.08116624  0.32219761  0.61600184    -0.32400
C919        C  0.05841615  0.31781015  0.59513391     0.36800
C920        C  0.06491240  0.30480629  0.56732804    -0.05300
C921        C  0.09391985  0.29456347  0.56155101    -0.32300
C922        C  0.11698335  0.29994724  0.58211942     0.36800
H923        H  0.07611305  0.33353666  0.63674342     0.17100
O924        O  0.03002924  0.32737280  0.60156378    -0.59800
H925        H  0.09921343  0.28497079  0.54000019     0.17100
O926        O  0.14579354  0.29322247  0.57441746    -0.59900
H927        H  0.15268291  0.31056181  0.56224452     0.44100
H928        H  0.03030788  0.34941991  0.59869682     0.44100
C929        C  0.18065075  0.38887366  0.60252588    -0.05000
C930        C  0.16856947  0.38714040  0.57356568    -0.32400
C931        C  0.17373776  0.40971312  0.55239131     0.36800
C932        C  0.19129009  0.43448877  0.56006149    -0.05300
C933        C  0.20402579  0.43595954  0.58875943    -0.32300
C934        C  0.19852374  0.41348808  0.61014082     0.36800
H935        H  0.15441893  0.36854400  0.56760786     0.17100
O936        O  0.16052995  0.40796209  0.52463488    -0.59800
H937        H  0.21637330  0.45558463  0.59527618     0.17100
O938        O  0.20900080  0.41682243  0.63884753    -0.59900
H939        H  0.19265690  0.42699461  0.64974592     0.44100
H940        H  0.17650028  0.40091868  0.51105367     0.44100
C941        C  0.06839363  0.43648448  0.68312722    -0.05000
C942        C  0.06789897  0.40937215  0.69939788    -0.32400
C943        C  0.08906598  0.38680482  0.69389455     0.36800
C944        C  0.11168804  0.39172055  0.67254690    -0.05300
C945        C  0.11261579  0.41923142  0.65703409    -0.32300
C946        C  0.09102659  0.44132066  0.66184894     0.36800
H947        H  0.05026660  0.40514350  0.71544003     0.17100
O948        O  0.08609984  0.35935825  0.70767989    -0.59800
H949        H  0.12991976  0.42343638  0.64062085     0.17100
O950        O  0.09256846  0.46781592  0.64603415    -0.59900
H951        H  0.08339585  0.46367851  0.62624034     0.44100
H952        H  0.08951024  0.36284571  0.72935948     0.44100
C953        C  0.15308731  0.36297025  0.77891026    -0.05000
C954        C  0.15046152  0.33450764  0.76639524    -0.32400
C955        C  0.14999406  0.33063411  0.73538143     0.36800
C956        C  0.15262062  0.35547026  0.71597735    -0.05300
C957        C  0.15691654  0.38386136  0.72825456    -0.32300
C958        C  0.15733017  0.38777045  0.75950892     0.36800
H959        H  0.14917422  0.31493011  0.78064228     0.17100
O960        O  0.14586989  0.30252635  0.72432836    -0.59800
H961        H  0.16051929  0.40299108  0.71355345     0.17100
O962        O  0.16473634  0.41513845  0.77082655    -0.59900
H963        H  0.15111377  0.42988761  0.76097816     0.44100
H964        H  0.16541238  0.29221566  0.72671050     0.44100
C965        C  0.11457974  0.33960199  0.89501045    -0.01200
C966        C  0.09180797  0.31894492  0.88949755    -0.32400
C967        C  0.07102435  0.31157372  0.91169739     0.36800
C968        C  0.07208587  0.32579013  0.93965077    -0.05300
C969        C  0.09501132  0.34618604  0.94539179    -0.32300
C970        C  0.11633634  0.35289978  0.92346467     0.36800
H971        H  0.08937883  0.30921280  0.86762598     0.17100
O972        O  0.04857698  0.29197968  0.90511599    -0.59800
H973        H  0.09641583  0.35696537  0.96698582     0.17100
O974        O  0.13932543  0.37177587  0.93036099    -0.59900
H975        H  0.13020316  0.39200398  0.93158947     0.44100
H976        H  0.05707397  0.27190355  0.90948917     0.44100
C977        C  0.11359406  0.40567049  0.81688148    -0.05000
C978        C  0.12045497  0.43613285  0.81404697    -0.32400
C979        C  0.09806364  0.45738303  0.80822595     0.36800
C980        C  0.06812197  0.44845539  0.80667701    -0.05300
C981        C  0.06115309  0.41792289  0.80890196    -0.32300
C982        C  0.08376618  0.39650963  0.81384800     0.36800
H983        H  0.14318118  0.44358128  0.81716919     0.17100
O984        O  0.10536141  0.48710705  0.80651579    -0.59800
H985        H  0.03806531  0.41086844  0.80828819     0.17100
O986        O  0.07637333  0.36693583  0.81741438    -0.59900
H987        H  0.07195109  0.36434728  0.83907220     0.44100
H988        H  0.10853938  0.49128717  0.78485749     0.44100
C989        C  0.18598977  0.40864257  0.88884677    -0.05000
C990        C  0.17436371  0.43776312  0.88608869    -0.32400
C991        C  0.17850171  0.45867826  0.90871607     0.36800
C992        C  0.19468409  0.45079529  0.93476704    -0.05300
C993        C  0.20796113  0.42226149  0.93691586    -0.32300
C994        C  0.20349557  0.40108040  0.91424490     0.36800
H995        H  0.16076337  0.44394351  0.86687317     0.17100
O996        O  0.16556885  0.48646068  0.90567295    -0.59800
H997        H  0.22013412  0.41573547  0.95704406     0.17100
O998        O  0.21356843  0.37230428  0.91860015    -0.59900
H999        H  0.23542420  0.37319063  0.91549610     0.44100
H1000       H  0.18184361  0.49982159  0.89882393     0.44100
C1001       C  0.14887471  0.15462744  0.79372215    -0.05000
C1002       C  0.17404127  0.14321402  0.77911457    -0.32400
C1003       C  0.17439517  0.14031869  0.74797084     0.36800
C1004       C  0.14909187  0.14841826  0.73100929    -0.05300
C1005       C  0.12353953  0.15917914  0.74553802    -0.32300
C1006       C  0.12332162  0.16232408  0.77680665     0.36800
H1007       H  0.19292547  0.13511974  0.79195926     0.17100
O1008       O  0.19901204  0.12819576  0.73441357    -0.59800
H1009       H  0.10397044  0.16560619  0.73256334     0.17100
O1010       O  0.09847796  0.17370191  0.79056364    -0.59900
H1011       H  0.08384074  0.15715157  0.79080974     0.44100
H1012       H  0.21366336  0.14469577  0.73307067     0.44100
C1013       C  0.15013298  0.29590453  0.85642709    -0.05000
C1014       C  0.16612437  0.28086043  0.87919516    -0.32400
C1015       C  0.16591643  0.24953295  0.88115924     0.36800
C1016       C  0.14980846  0.23291618  0.86003484    -0.05300
C1017       C  0.13331652  0.24787933  0.83768246    -0.32300
C1018       C  0.13281255  0.27925624  0.83619811     0.36800
H1019       H  0.17895861  0.29345080  0.89530020     0.17100
O1020       O  0.18158984  0.23530994  0.90370395    -0.59800
H1021       H  0.12036259  0.23521467  0.82172139     0.17100
O1022       O  0.11493601  0.29354040  0.81535900    -0.59900
H1023       H  0.09421758  0.28723654  0.81982168     0.44100
H1024       H  0.20136753  0.23078642  0.89490023     0.44100
C1025       C  0.10971606  0.11854072  0.83838191    -0.05000
C1026       C  0.08205805  0.11910599  0.85312801    -0.32400
C1027       C  0.06042982  0.09733250  0.84778295     0.36800
C1028       C  0.06566107  0.07500469  0.82648844    -0.05300
C1029       C  0.09309477  0.07426822  0.81155856    -0.32300
C1030       C  0.11541384  0.09528406  0.81792085     0.36800
H1031       H  0.07724920  0.13632198  0.86928051     0.17100
O1032       O  0.03392180  0.09846060  0.86302197    -0.59800
H1033       H  0.09777897  0.05646488  0.79595405     0.17100
O1034       O  0.14342116  0.09119354  0.80630013    -0.59900
H1035       H  0.14075672  0.09012484  0.78422126     0.44100
H1036       H  0.03802442  0.08848676  0.88263289     0.44100
C1037       C  0.19244755  0.07763487  0.95016254    -0.05000
C1038       C  0.20686011  0.07696948  0.92233274    -0.32400
C1039       C  0.20188847  0.09978476  0.90088427     0.36800
C1040       C  0.18254894  0.12378281  0.90756992    -0.05300
C1041       C  0.16960458  0.12506943  0.93610468    -0.32300
C1042       C  0.17417047  0.10219515  0.95719965     0.36800
H1043       H  0.22012679  0.05763487  0.91642474     0.17100
O1044       O  0.21346266  0.09683007  0.87263282    -0.59800
H1045       H  0.15465712  0.14318546  0.94166406     0.17100
O1046       O  0.16023268  0.10374723  0.98451049    -0.59900
H1047       H  0.13925395  0.09789663  0.98067542     0.44100
H1048       H  0.23528793  0.09960785  0.87496625     0.44100
C1049       C  0.11150268  0.19652172  0.90280493    -0.05000
C1050       C  0.11957487  0.19728551  0.93318601    -0.32400
C1051       C  0.09794266  0.20170861  0.95528907     0.36800
C1052       C  0.06791292  0.20615408  0.94701763    -0.05300
C1053       C  0.06021749  0.20796495  0.91649522    -0.32300
C1054       C  0.08190826  0.20323207  0.89433048     0.36800
H1055       H  0.14246733  0.19298714  0.93986213     0.17100
O1056       O  0.10606769  0.20013802  0.98498711    -0.59800
H1057       H  0.03711599  0.21129467  0.90989727     0.17100
O1058       O  0.07393323  0.20415254  0.86455698    -0.59900
H1059       H  0.06048256  0.18690752  0.86157637     0.44100
H1060       H  0.10447970  0.17868159  0.99069739     0.44100
C1061       C  0.35660057  0.14497238  0.72953915    -0.05000
C1062       C  0.36971649  0.17053121  0.74161255    -0.32400
C1063       C  0.36879629  0.17570465  0.77250831     0.36800
C1064       C  0.35644714  0.15405872  0.79181182    -0.05300
C1065       C  0.34345847  0.12834872  0.77983232    -0.32300
C1066       C  0.34262519  0.12421586  0.74876866     0.36800
H1067       H  0.38090610  0.18640416  0.72711490     0.17100
O1068       O  0.38025537  0.20169325  0.78381083    -0.59800
H1069       H  0.33332708  0.11188447  0.79459672     0.17100
O1070       O  0.32763591  0.10020935  0.73745034    -0.59900
H1071       H  0.30811408  0.10831531  0.73047529     0.44100
H1072       H  0.40183915  0.20144311  0.77901493     0.44100
C1073       C  0.22259266  0.16286813  0.86509137    -0.05000
C1074       C  0.23806065  0.16061832  0.83790184    -0.32400
C1075       C  0.26927604  0.15986066  0.83707509     0.36800
C1076       C  0.28588905  0.16221598  0.86377351    -0.05300
C1077       C  0.27057896  0.16587547  0.89094746    -0.32300
C1078       C  0.23924204  0.16634522  0.89175708     0.36800
H1079       H  0.22605276  0.15903953  0.81705623     0.17100
O1080       O  0.28327294  0.15515789  0.81021206    -0.59800
H1081       H  0.28294832  0.16877055  0.91162448     0.17100
O1082       O  0.22517445  0.17065387  0.91863133    -0.59900
H1083       H  0.22806719  0.19206617  0.92329524     0.44100
H1084       H  0.28052788  0.17398355  0.79845646     0.44100
C1085       C  0.32576113  0.12315231  0.90536803    -0.05000
C1086       C  0.30843010  0.09859998  0.89685438    -0.32400
C1087       C  0.30211719  0.07548462  0.91755416     0.36800
C1088       C  0.31345476  0.07690493  0.94700732    -0.05300
C1089       C  0.32957220  0.10209813  0.95578039    -0.32300
C1090       C  0.33571966  0.12511422  0.93523518     0.36800
H1091       H  0.30120134  0.09655015  0.87374522     0.17100
O1092       O  0.28790410  0.05013220  0.90809878    -0.59800
H1093       H  0.33828894  0.10346962  0.97844249     0.17100
O1094       O  0.35165275  0.14942316  0.94448654    -0.59900
H1095       H  0.37250850  0.14219117  0.94690879     0.44100
H1096       H  0.26903248  0.05700645  0.89852100     0.44100
C1097       C  0.43872438  0.07144683  0.82176911    -0.05000
C1098       C  0.44015410  0.09938663  0.80719396    -0.32400
C1099       C  0.41943820  0.12215414  0.81364665     0.36800
C1100       C  0.39618041  0.11673450  0.83424819    -0.05300
C1101       C  0.39447798  0.08854704  0.84833226    -0.32300
C1102       C  0.41550838  0.06608599  0.84237359     0.36800
H1103       H  0.45834987  0.10415827  0.79195698     0.17100
O1104       O  0.42383714  0.15034578  0.80205517    -0.59800
H1105       H  0.37697774  0.08405614  0.86445987     0.17100
O1106       O  0.41352769  0.03912366  0.85728507    -0.59900
H1107       H  0.39759207  0.02804420  0.84675506     0.44100
H1108       H  0.42463868  0.14806401  0.77992593     0.44100
C1109       C  0.44199535  0.20066293  0.94484024    -0.05000
C1110       C  0.45057178  0.19145319  0.91619983    -0.32400
C1111       C  0.42928117  0.18762478  0.89367640     0.36800
C1112       C  0.39904155  0.19301613  0.89970841    -0.05300
C1113       C  0.39054823  0.20398452  0.92776439    -0.32300
C1114       C  0.41189227  0.20747162  0.95056407     0.36800
H1115       H  0.47370220  0.18592200  0.91171697     0.17100
O1116       O  0.43792099  0.17664613  0.86645162    -0.59800
H1117       H  0.36715616  0.20765008  0.93266208     0.17100
O1118       O  0.40285981  0.21422118  0.97909003    -0.59900
H1119       H  0.39579133  0.23525577  0.97807935     0.44100
H1120       H  0.44417260  0.19441396  0.85455088     0.44100
C1121       C  0.36077792  0.35502522  0.71270455    -0.05000
C1122       C  0.34450939  0.37826797  0.72585770    -0.32400
C1123       C  0.34376984  0.38106444  0.75710927     0.36800
C1124       C  0.35980445  0.36075016  0.77542215    -0.05300
C1125       C  0.37661342  0.33797264  0.76228681    -0.32300
C1126       C  0.37752901  0.33524492  0.73103513     0.36800
H1127       H  0.33205658  0.39397992  0.71187664     0.17100
O1128       O  0.32713082  0.40347865  0.76959652    -0.59800
H1129       H  0.38932878  0.32251841  0.77627991     0.17100
O1130       O  0.39496350  0.31340809  0.71846899    -0.59900
H1131       H  0.41575110  0.31763545  0.72474610     0.44100
H1132       H  0.30703768  0.39475382  0.77251976     0.44100
C1133       C  0.28840519  0.36683180  0.84723037    -0.05000
C1134       C  0.27286735  0.33994373  0.85114621    -0.32400
C1135       C  0.24173162  0.33953204  0.85298996     0.36800
C1136       C  0.22532523  0.36633776  0.85012651    -0.05300
C1137       C  0.24064968  0.39320358  0.84475954    -0.32300
C1138       C  0.27191434  0.39358050  0.84314158     0.36800
H1139       H  0.28477757  0.31906759  0.85327502     0.17100
O1140       O  0.22765432  0.31301194  0.85924727    -0.59800
H1141       H  0.22832566  0.41391197  0.84139849     0.17100
O1142       O  0.28604788  0.42010629  0.83717129    -0.59900
H1143       H  0.28562823  0.42238369  0.81501788     0.44100
H1144       H  0.22945864  0.30100204  0.84078450     0.44100
C1145       C  0.36024246  0.23205273  0.85876898    -0.05000
C1146       C  0.38583165  0.24644419  0.84781333    -0.32400
C1147       C  0.38680581  0.27780262  0.84542085     0.36800
C1148       C  0.36208713  0.29503490  0.85437429    -0.05300
C1149       C  0.33725824  0.28055696  0.86673996    -0.32300
C1150       C  0.33596249  0.24932548  0.86848336     0.36800
H1151       H  0.40483492  0.23332726  0.84063227     0.17100
O1152       O  0.41202368  0.29143532  0.83472583    -0.59800
H1153       H  0.31916730  0.29348480  0.87590100     0.17100
O1154       O  0.31138922  0.23588248  0.88085425    -0.59900
H1155       H  0.29638444  0.23534549  0.86445663     0.44100
H1156       H  0.41166017  0.28831323  0.81275620     0.44100
C1157       C  0.31861614  0.45101035  0.93039330    -0.05000
C1158       C  0.30305395  0.42383733  0.93031378    -0.32400
C1159       C  0.30892092  0.40233135  0.90836747     0.36800
C1160       C  0.32950314  0.40855670  0.88520059    -0.05300
C1161       C  0.34360501  0.43651925  0.88461915    -0.32300
C1162       C  0.33848417  0.45749854  0.90690312     0.36800
H1163       H  0.28796061  0.41838536  0.94848460     0.17100
O1164       O  0.29599986  0.37471846  0.91109618    -0.59800
H1165       H  0.35966776  0.44187069  0.86744211     0.17100
O1166       O  0.35394557  0.48390629  0.90612055    -0.59900
H1167       H  0.34089249  0.49818690  0.89490491     0.44100
H1168       H  0.31157788  0.36156750  0.92019330     0.44100
C1169       C  0.40312883  0.33895793  0.88847394    -0.05000
C1170       C  0.39795765  0.31609777  0.90984066    -0.32400
C1171       C  0.41960685  0.30839207  0.93140189     0.36800
C1172       C  0.44623521  0.32467278  0.93305234    -0.05300
C1173       C  0.45160486  0.34734316  0.91185541    -0.32300
C1174       C  0.43059199  0.35433830  0.88951493     0.36800
H1175       H  0.37682262  0.30459267  0.91049570     0.17100
O1176       O  0.41383309  0.28597422  0.95173143    -0.59800
H1177       H  0.47231558  0.35973047  0.91257174     0.17100
O1178       O  0.43762929  0.37560065  0.86827215    -0.59900
H1179       H  0.43953345  0.39469360  0.87920171     0.44100
H1180       H  0.42404404  0.26814602  0.94355724     0.44100
C1181       C  0.39729072  0.40502389  0.81005539    -0.05000
C1182       C  0.38945477  0.43533949  0.81132655    -0.32400
C1183       C  0.41093462  0.45748178  0.80702647     0.36800
C1184       C  0.44058409  0.44937628  0.80092711    -0.05300
C1185       C  0.44792047  0.41915501  0.79683309    -0.32300
C1186       C  0.42628388  0.39687269  0.80116163     0.36800
H1187       H  0.36694196  0.44180293  0.81722074     0.17100
O1188       O  0.40336850  0.48684991  0.81145799    -0.59800
H1189       H  0.47076084  0.41273192  0.79208413     0.17100
O1190       O  0.43378666  0.36726167  0.79786520    -0.59900
H1191       H  0.44908469  0.36273046  0.81341651     0.44100
H1192       H  0.39694847  0.49457700  0.79147222     0.44100
C1193       C  0.33823850  0.84383291  0.32821526     0.46000
H1194       H  0.32446219  0.82787059  0.31531185    -0.03100
C1195       C  0.37105657  0.88111957  0.35759660     0.46000
H1196       H  0.38475082  0.89734029  0.37011632    -0.03100
C1197       C  0.35822821  0.86327861  0.30794730    -0.16800
C1198       C  0.31986424  0.86642823  0.34667116    -0.16500
C1199       C  0.35980235  0.82849343  0.35088963    -0.16900
C1200       C  0.37526586  0.88309544  0.32345877    -0.16900
C1201       C  0.33745093  0.88570009  0.36281890    -0.16400
C1202       C  0.37755136  0.84821578  0.36630404    -0.16800
C1203       C  0.37093695  0.64863350  0.37807123     0.46000
H1204       H  0.38529213  0.63507603  0.39352779    -0.03100
C1205       C  0.33772147  0.68049683  0.34180462     0.46000
H1206       H  0.32385527  0.69435988  0.32622494    -0.03100
C1207       C  0.33734627  0.64461907  0.38351871    -0.16800
C1208       C  0.37638836  0.68231584  0.38015008    -0.16500
C1209       C  0.37575247  0.64121240  0.34497418    -0.16900
C1210       C  0.31951728  0.66123237  0.36422424    -0.16900
C1211       C  0.35886057  0.69926633  0.36126164    -0.16400
C1212       C  0.35829078  0.65807248  0.32577900    -0.16800
C1213       C  0.17011462  0.68028399  0.34286847     0.46000
H1214       H  0.18364881  0.69344351  0.32663185    -0.03100
C1215       C  0.13766085  0.65028022  0.38067908     0.46000
H1216       H  0.12383524  0.63748628  0.39695578    -0.03100
C1217       C  0.14872321  0.65783184  0.32788109    -0.16800
C1218       C  0.18895844  0.66159350  0.36551927    -0.16500
C1219       C  0.14983714  0.70005681  0.36239255    -0.16900
C1220       C  0.13150295  0.64189664  0.34791662    -0.16900
C1221       C  0.17144999  0.64538868  0.38516798    -0.16400
C1222       C  0.13281174  0.68418336  0.38232379    -0.16800
C1223       C  0.13937341  0.88164955  0.36105667     0.46000
H1224       H  0.12527591  0.89755730  0.37377105    -0.03100
C1225       C  0.17152261  0.84446882  0.33065191     0.46000
H1226       H  0.18511193  0.82857886  0.31745578    -0.03100
C1227       C  0.17304689  0.88537530  0.36638542    -0.16800
C1228       C  0.13297930  0.84867078  0.36884413    -0.16500
C1229       C  0.13503064  0.88471144  0.32692266    -0.16900
C1230       C  0.19022003  0.86574290  0.35014858    -0.16900
C1231       C  0.14959398  0.82903089  0.35227427    -0.16400
C1232       C  0.15221999  0.86524029  0.31075134    -0.16800
C1233       C  0.17339837  0.82929435  0.16513952     0.46000
H1234       H  0.18852667  0.81602411  0.18005606    -0.03100
C1235       C  0.13816603  0.86015964  0.13004135     0.46000
H1236       H  0.12302201  0.87317684  0.11488124    -0.03100
C1237       C  0.15252998  0.85097116  0.18194269    -0.16800
C1238       C  0.19004071  0.84924951  0.14240006    -0.16500
C1239       C  0.15268345  0.80997564  0.14592192    -0.16900
C1240       C  0.13391233  0.86734077  0.16325766    -0.16900
C1241       C  0.17125116  0.86561993  0.12408033    -0.16400
C1242       C  0.13410545  0.82634709  0.12759753    -0.16800
C1243       C  0.37031490  0.85845643  0.12586458     0.46000
H1244       H  0.38489420  0.87026247  0.10954414    -0.03100
C1245       C  0.33704752  0.83013246  0.16415452     0.46000
H1246       H  0.32246425  0.81831099  0.18036451    -0.03100
C1247       C  0.33685696  0.86453873  0.12117544    -0.16800
C1248       C  0.37382694  0.82432970  0.12469668    -0.16500
C1249       C  0.37669229  0.86697931  0.15856041    -0.16900
C1250       C  0.31919505  0.84975048  0.14160676    -0.16900
C1251       C  0.35603722  0.80902681  0.14469002    -0.16400
C1252       C  0.35950118  0.85151105  0.17889758    -0.16800
C1253       C  0.13653601  0.63005320  0.14845530     0.46000
H1254       H  0.12205028  0.61533504  0.13485854    -0.03100
C1255       C  0.17024985  0.66453862  0.18026659     0.46000
H1256       H  0.18456586  0.67944592  0.19386109    -0.03100
C1257       C  0.16998045  0.62329027  0.14502469    -0.16800
C1258       C  0.13286168  0.66335363  0.14038463    -0.16500
C1259       C  0.13036597  0.62789540  0.18225243    -0.16900
C1260       C  0.18786097  0.64169168  0.16164030    -0.16900
C1261       C  0.15037881  0.68156495  0.15750483    -0.16400
C1262       C  0.14842691  0.64572234  0.19910766    -0.16800
C1263       C  0.33490007  0.66299072  0.17791562     0.46000
H1264       H  0.32070582  0.67819575  0.19134109    -0.03100
C1265       C  0.36788034  0.62673915  0.14729619     0.46000
H1266       H  0.38247487  0.61141657  0.13440936    -0.03100
C1267       C  0.35560767  0.64318601  0.19744180    -0.16800
C1268       C  0.31680559  0.64106644  0.15873597    -0.16500
C1269       C  0.35545669  0.67916644  0.15544645    -0.16900
C1270       C  0.37265284  0.62383252  0.18121112    -0.16900
C1271       C  0.33431376  0.62183580  0.14237033    -0.16400
C1272       C  0.37326707  0.65985776  0.13956957    -0.16800
O1273       O  0.03316764  0.53248460  0.17527848    -0.71300
O1274       O  0.47515184  0.97244267  0.16171121    -0.71500
O1275       O  0.47489454  0.53093299  0.17340425    -0.71400
O1276       O  0.03486948  0.97311378  0.16447980    -0.71400
O1277       O  0.03565880  0.96509300  0.21265384    -0.71300
O1278       O  0.47294896  0.52148322  0.22134283    -0.71400
O1279       O  0.47566000  0.96215606  0.20949042    -0.71300
O1280       O  0.03279777  0.52446671  0.22349730    -0.71500
V1281       V  0.00486326  0.50199991  0.17059236     1.35200
V1282       V  0.00412220  0.49365559  0.21680457     1.35200
C1283       C  0.04224422  0.53928067  0.20110280     0.77900
C1284       C  0.46524343  0.95730570  0.18356971     0.78000
C1285       C  0.46370773  0.53627499  0.19872121     0.77900
C1286       C  0.04580670  0.95926494  0.18692920     0.77800
O1287       O  0.03259136  0.97673530  0.33091043    -0.71300
O1288       O  0.47206202  0.53362604  0.34260011    -0.71500
O1289       O  0.47389129  0.97567473  0.32936398    -0.71400
O1290       O  0.03064747  0.53737607  0.34467199    -0.71400
O1291       O  0.03433913  0.54516142  0.29659751    -0.71300
O1292       O  0.47220311  0.98743217  0.28188478    -0.71400
O1293       O  0.47554100  0.54527429  0.29526671    -0.71300
O1294       O  0.03392144  0.98534370  0.28278940    -0.71500
V1295       V  0.00240102  0.50683877  0.33681556     1.35200
V1296       V  0.00433609  0.51573051  0.29074960     1.35200
C1297       C  0.04347885  0.97100543  0.30554940     0.77900
C1298       C  0.46319359  0.54921872  0.32044656     0.78000
C1299       C  0.46294911  0.97157923  0.30361113     0.77900
C1300       C  0.04217848  0.55167015  0.32301457     0.77800
O1301       O  0.21761112  0.97695609  0.47348883    -0.71300
O1302       O  0.21720528  0.53366692  0.03807957    -0.71500
O1303       O  0.21535064  0.97358855  0.03400792    -0.71400
O1304       O  0.21783169  0.53773081  0.47698219    -0.71400
O1305       O  0.16973156  0.54164343  0.48199810    -0.71300
O1306       O  0.16757166  0.96983756  0.02628414    -0.71400
O1307       O  0.16939805  0.52680622  0.04192125    -0.71300
O1308       O  0.16947046  0.98137822  0.46900752    -0.71500
V1309       V  0.21721734  0.50527015  0.00643365     1.35200
V1310       V  0.17086132  0.50491493  0.00571452     1.35200
C1311       C  0.19377979  0.97033072  0.45980448     0.77900
C1312       C  0.19294764  0.53891966  0.05155661     0.78000
C1313       C  0.19099201  0.96029882  0.03906040     0.77900
C1314       C  0.19366138  0.55136546  0.47084726     0.77800
O1315       O  0.47411163  0.66501867  0.03643537    -0.71300
O1316       O  0.03514975  0.67693030  0.47774037    -0.71500
O1317       O  0.03305510  0.66768983  0.03728661    -0.71400
O1318       O  0.47529355  0.67327507  0.47716637    -0.71400
O1319       O  0.47209594  0.72103521  0.48545361    -0.71300
O1320       O  0.03231823  0.71571746  0.04433748    -0.71400
O1321       O  0.03113545  0.72506576  0.48308105    -0.71300
O1322       O  0.47246985  0.71280149  0.04471838    -0.71500
V1323       V  0.00426821  0.67301024  0.00647021     1.35200
V1324       V  0.00191738  0.71889065  0.01437366     1.35200
C1325       C  0.46302038  0.68674183  0.05052791     0.77900
C1326       C  0.04349189  0.70295301  0.47052743     0.78000
C1327       C  0.04305092  0.69018224  0.05083829     0.77900
C1328       C  0.46380984  0.69844046  0.47088979     0.77800
O1329       O  0.33658843  0.98285870  0.46549484    -0.71300
O1330       O  0.33968278  0.52611898  0.03860456    -0.71500
O1331       O  0.33634812  0.96860785  0.02409077    -0.71400
O1332       O  0.33780869  0.53976076  0.48025112    -0.71400
O1333       O  0.28996186  0.53585250  0.47324411    -0.71300
O1334       O  0.28838276  0.97270562  0.03005712    -0.71400
O1335       O  0.29173247  0.53212850  0.03389011    -0.71300
O1336       O  0.28888665  0.97548973  0.46952570    -0.71500
V1337       V  0.33936061  0.50440515  0.00244773     1.35200
V1338       V  0.29298741  0.50413031  0.00192259     1.35200
C1339       C  0.31312528  0.97070735  0.45580803     0.77900
C1340       C  0.31564144  0.53743917  0.04805930     0.78000
C1341       C  0.31261517  0.95910495  0.03594244     0.77900
C1342       C  0.31416146  0.54937688  0.46786479     0.77800
O1343       O  0.47790173  0.84258313  0.47122200    -0.71300
O1344       O  0.03132618  0.83264778  0.03554555    -0.71500
O1345       O  0.03725921  0.84263766  0.47648011    -0.71400
O1346       O  0.47332394  0.83226578  0.03150732    -0.71400
O1347       O  0.47685777  0.78403417  0.02645299    -0.71300
O1348       O  0.03500514  0.79546491  0.46562476    -0.71400
O1349       O  0.03644001  0.78552976  0.02506678    -0.71300
O1350       O  0.47413940  0.79439124  0.46685505    -0.71500
V1351       V  0.00479850  0.83682084  0.00295947     1.35200
V1352       V  0.00535960  0.79081839  0.99592820     1.35200
C1353       C  0.46604649  0.82046287  0.45859047     0.77900
C1354       C  0.04333354  0.80761117  0.04114506     0.78000
C1355       C  0.04651049  0.82091169  0.46113267     0.77900
C1356       C  0.46504129  0.80629915  0.03909262     0.77800
C1357       C  0.32404280  0.59839409  0.12120720    -0.05000
C1358       C  0.33923391  0.57081633  0.12169139    -0.32400
C1359       C  0.33578054  0.55033299  0.09860091     0.36800
C1360       C  0.31610206  0.55672879  0.07468207    -0.05300
C1361       C  0.29917261  0.58324238  0.07507014    -0.32300
C1362       C  0.30329529  0.60428915  0.09788419     0.36800
H1363       H  0.35526672  0.56568729  0.13922191     0.17100
O1364       O  0.35205309  0.52420392  0.09943336    -0.59800
H1365       H  0.28429408  0.58864593  0.05653303     0.17100
O1366       O  0.28942061  0.63163512  0.09532637    -0.59900
H1367       H  0.26784264  0.62760475  0.09802471     0.44100
H1368       H  0.37250449  0.52987804  0.09321209     0.44100
C1369       C  0.39588466  0.66845716  0.11680137    -0.05000
C1370       C  0.39521297  0.65429241  0.08893093    -0.32400
C1371       C  0.41661570  0.66063889  0.06710248     0.36800
C1372       C  0.43935023  0.68141811  0.07290294    -0.05300
C1373       C  0.43987598  0.69602342  0.10061472    -0.32300
C1374       C  0.41864876  0.68926841  0.12274041     0.36800
H1375       H  0.37784452  0.63829571  0.08398936     0.17100
O1376       O  0.41502096  0.64648655  0.04002395    -0.59800
H1377       H  0.45740939  0.71184306  0.10550126     0.17100
O1378       O  0.42085543  0.70252006  0.15023477    -0.59900
H1379       H  0.42938536  0.68692351  0.16384573     0.44100
H1380       H  0.40296649  0.66001543  0.02689209     0.44100
C1381       C  0.39495896  0.60252217  0.19357736    -0.05000
C1382       C  0.42490143  0.61122612  0.19444923    -0.32400
C1383       C  0.44763061  0.58979360  0.19792237     0.36800
C1384       C  0.44041236  0.55934599  0.20118379    -0.05300
C1385       C  0.41042425  0.55080681  0.20202190    -0.32300
C1386       C  0.38764405  0.57220977  0.19811501     0.36800
H1387       H  0.43074032  0.63441377  0.19037228     0.17100
O1388       O  0.47687223  0.59858765  0.19681138    -0.59800
H1389       H  0.40470730  0.52732370  0.20379871     0.17100
O1390       O  0.35853393  0.56306955  0.19600353    -0.59900
H1391       H  0.35413450  0.55261316  0.21523553     0.44100
H1392       H  0.48075278  0.60310410  0.17533856     0.44100
C1393       C  0.22092980  0.64099512  0.16145538    -0.05000
C1394       C  0.23635108  0.66743210  0.15483372    -0.32400
C1395       C  0.26754465  0.66765772  0.15389548     0.36800
C1396       C  0.28377552  0.64107458  0.15950562    -0.05300
C1397       C  0.26842702  0.61477516  0.16693874    -0.32300
C1398       C  0.23715337  0.61459989  0.16801569     0.36800
H1399       H  0.22415449  0.68791659  0.14992537     0.17100
O1400       O  0.28193786  0.69357540  0.14594532    -0.59800
H1401       H  0.28074409  0.59444468  0.17228873     0.17100
O1402       O  0.22266603  0.58907146  0.17701246    -0.59900
H1403       H  0.22674353  0.57414263  0.16125723     0.44100
H1404       H  0.28057187  0.70660359  0.16373358     0.44100
C1405       C  0.06724339  0.68622303  0.07305085    -0.05000
C1406       C  0.09038719  0.66601136  0.06684694    -0.32400
C1407       C  0.11274006  0.65988972  0.08801293     0.36800
C1408       C  0.11190357  0.67348979  0.11629977    -0.05300
C1409       C  0.08902698  0.69419805  0.12229501    -0.32300
C1410       C  0.06694655  0.70086884  0.10078508     0.36800
H1411       H  0.09104968  0.65475128  0.04547253     0.17100
O1412       O  0.13495229  0.63996376  0.08103534    -0.59800
H1413       H  0.08719699  0.70401100  0.14416316     0.17100
O1414       O  0.04439914  0.72048580  0.10765623    -0.59900
H1415       H  0.02965419  0.70845808  0.11906580     0.44100
H1416       H  0.15152384  0.65240399  0.07323852     0.44100
C1417       C  0.19153778  0.55904176  0.07755675    -0.05000
C1418       C  0.17424176  0.55078042  0.10244284    -0.32400
C1419       C  0.16888101  0.57100446  0.12556045     0.36800
C1420       C  0.18047138  0.60015508  0.12379738    -0.05300
C1421       C  0.19922909  0.60791372  0.09978296    -0.32300
C1422       C  0.20489502  0.58750491  0.07677534     0.36800
H1423       H  0.16436570  0.52872690  0.10367780     0.17100
O1424       O  0.15258977  0.56204384  0.15005776    -0.59800
H1425       H  0.20815699  0.63033416  0.09802444     0.17100
O1426       O  0.22195443  0.59622945  0.05276961    -0.59900
H1427       H  0.20772638  0.60545647  0.03820947     0.44100
H1428       H  0.13160896  0.56104208  0.14297448     0.44100
C1429       C  0.06271044  0.56466240  0.20381065    -0.05000
C1430       C  0.05583856  0.59057105  0.18711271    -0.32400
C1431       C  0.07725595  0.61247679  0.18209737     0.36800
C1432       C  0.10616395  0.60869871  0.19387555    -0.05300
C1433       C  0.11248323  0.58405312  0.21284092    -0.32300
C1434       C  0.09080512  0.56194333  0.21787033     0.36800
H1435       H  0.03425839  0.59300395  0.17631266     0.17100
O1436       O  0.07003928  0.63716428  0.16484427    -0.59800
H1437       H  0.13475390  0.58090633  0.22194840     0.17100
O1438       O  0.09803011  0.53684520  0.23445310    -0.59900
H1439       H  0.10529683  0.52208388  0.21970227     0.44100
H1440       H  0.06808475  0.62979930  0.14403084     0.44100
C1441       C  0.35462072  0.77567472  0.14747989    -0.05000
C1442       C  0.35268440  0.75805356  0.12166698    -0.32400
C1443       C  0.35294160  0.72669452  0.12358101     0.36800
C1444       C  0.35475051  0.71233837  0.15186304    -0.05300
C1445       C  0.35418277  0.72989562  0.17763339    -0.32300
C1446       C  0.35382791  0.76111551  0.17570964     0.36800
H1447       H  0.34991308  0.76846444  0.09988961     0.17100
O1448       O  0.34924811  0.71038586  0.09795894    -0.59800
H1449       H  0.35392157  0.71949410  0.19960138     0.17100
O1450       O  0.35323979  0.77699052  0.20174320    -0.59900
H1451       H  0.33302326  0.77393383  0.21019090     0.44100
H1452       H  0.36625880  0.71570661  0.08478737     0.44100
C1453       C  0.44198353  0.80276370  0.06212229    -0.05000
C1454       C  0.44936401  0.80760362  0.09226014    -0.32400
C1455       C  0.42692081  0.81169873  0.11364590     0.36800
C1456       C  0.39675154  0.81115931  0.10487947    -0.05300
C1457       C  0.38949908  0.80463890  0.07501075    -0.32300
C1458       C  0.41191154  0.79997674  0.05376138     0.36800
H1459       H  0.47251024  0.80991981  0.09887834     0.17100
O1460       O  0.43462355  0.81801676  0.14269274    -0.59800
H1461       H  0.36644470  0.80480071  0.06771712     0.17100
O1462       O  0.40422018  0.79546411  0.02436300    -0.59900
H1463       H  0.40098876  0.77360785  0.02286197     0.44100
H1464       H  0.43926007  0.83968698  0.14261933     0.44100
C1465       C  0.32615344  0.88628034  0.09786196    -0.05000
C1466       C  0.30732948  0.91021274  0.10568865    -0.32400
C1467       C  0.30105587  0.93339700  0.08502854     0.36800
C1468       C  0.31399131  0.93296002  0.05630385    -0.05300
C1469       C  0.33169466  0.90853350  0.04815125    -0.32300
C1470       C  0.33753299  0.88521815  0.06849866     0.36800
H1471       H  0.29883053  0.91178842  0.12832939     0.17100
O1472       O  0.28472991  0.95765064  0.09410024    -0.59800
H1473       H  0.34168813  0.90787374  0.02606134     0.17100
O1474       O  0.35522904  0.86190382  0.05967253    -0.59900
H1475       H  0.34197287  0.84906439  0.04755606     0.44100
H1476       H  0.26463089  0.95480479  0.08528388     0.44100
C1477       C  0.44200004  0.93464282  0.17854429    -0.05000
C1478       C  0.42061956  0.93955963  0.15590754    -0.32400
C1479       C  0.39888362  0.91808004  0.14979429     0.36800
C1480       C  0.39855328  0.89080712  0.16612071    -0.05300
C1481       C  0.42015234  0.88594252  0.18861922    -0.32300
C1482       C  0.44135340  0.90776842  0.19527604     0.36800
H1483       H  0.42054989  0.96031654  0.14305038     0.17100
O1484       O  0.37737283  0.92447894  0.12861408    -0.59800
H1485       H  0.42133971  0.86485030  0.20052174     0.17100
O1486       O  0.46236649  0.90187507  0.21704527    -0.59900
H1487       H  0.45328877  0.90880122  0.23580271     0.44100
H1488       H  0.38787366  0.92480818  0.10906892     0.44100
C1489       C  0.15210034  0.77705647  0.14850357    -0.05000
C1490       C  0.13247232  0.76344435  0.16878062    -0.32400
C1491       C  0.13245781  0.73228173  0.17268808     0.36800
C1492       C  0.15084716  0.71446014  0.15461567    -0.05300
C1493       C  0.17026605  0.72804500  0.13408395    -0.32300
C1494       C  0.17161204  0.75925576  0.13160860     0.36800
H1495       H  0.11742697  0.77703344  0.18188262     0.17100
O1496       O  0.11513424  0.71931446  0.19461165    -0.59800
H1497       H  0.18471690  0.71441659  0.12035094     0.17100
O1498       O  0.19178860  0.77213153  0.11241341    -0.59900
H1499       H  0.20931387  0.77694725  0.12508924     0.44100
H1500       H  0.09441979  0.72644535  0.19092286     0.44100
C1501       C  0.22306480  0.85033574  0.14135388    -0.05000
C1502       C  0.23884936  0.85580887  0.16787766    -0.32400
C1503       C  0.27006522  0.85605288  0.16815716     0.36800
C1504       C  0.28603244  0.85076432  0.14158531    -0.05300
C1505       C  0.27019802  0.84520261  0.11500872    -0.32300
C1506       C  0.23891567  0.84510586  0.11469320     0.36800
H1507       H  0.22688309  0.86010963  0.18847498     0.17100
O1508       O  0.28471649  0.86256946  0.19428467    -0.59800
H1509       H  0.28212796  0.84033307  0.09453642     0.17100
O1510       O  0.22407579  0.83812298  0.08874115    -0.59900
H1511       H  0.22815140  0.85485190  0.07451168     0.44100
H1512       H  0.28253580  0.84457595  0.20733806     0.44100
C1513       C  0.11027135  0.81429424  0.10842523    -0.05000
C1514       C  0.08102819  0.82345221  0.11436229    -0.32400
C1515       C  0.05850268  0.81948969  0.09317482     0.36800
C1516       C  0.06489880  0.80530794  0.06592241    -0.05300
C1517       C  0.09364520  0.79395747  0.06087838    -0.32300
C1518       C  0.11655956  0.79903421  0.08169964     0.36800
H1519       H  0.07605970  0.83555614  0.13468196     0.17100
O1520       O  0.03046478  0.83055887  0.09876063    -0.59800
H1521       H  0.09893014  0.78360782  0.03968765     0.17100
O1522       O  0.14525917  0.79129175  0.07454490    -0.59900
H1523       H  0.15340204  0.80891582  0.06365463     0.44100
H1524       H  0.03183422  0.85247796  0.09529474     0.44100
C1525       C  0.18025317  0.88824487  0.10161274    -0.05000
C1526       C  0.16822235  0.88639468  0.07265644    -0.32400
C1527       C  0.17253333  0.90938530  0.05174944     0.36800
C1528       C  0.18930114  0.93458869  0.05964668    -0.05300
C1529       C  0.20172861  0.93636556  0.08848086    -0.32300
C1530       C  0.19701510  0.91348962  0.10962576     0.36800
H1531       H  0.15472269  0.86737383  0.06652135     0.17100
O1532       O  0.15939609  0.90753150  0.02397906    -0.59800
H1533       H  0.21340669  0.95635029  0.09517936     0.17100
O1534       O  0.20724451  0.91689099  0.13842421    -0.59900
H1535       H  0.18993104  0.92462507  0.14982137     0.44100
H1536       H  0.17451748  0.89776590  0.01113786     0.44100
C1537       C  0.06974238  0.93673441  0.18291420    -0.05000
C1538       C  0.07021109  0.91037830  0.20045245    -0.32400
C1539       C  0.09119977  0.88757001  0.19496893     0.36800
C1540       C  0.11275743  0.89149695  0.17227318    -0.05300
C1541       C  0.11293213  0.91845632  0.15574000    -0.32300
C1542       C  0.09148434  0.94069532  0.16054749     0.36800
H1543       H  0.05338227  0.90683439  0.21750103     0.17100
O1544       O  0.08896983  0.86079233  0.21019271    -0.59800
H1545       H  0.12949511  0.92211397  0.13845374     0.17100
O1546       O  0.09229591  0.96651773  0.14357719    -0.59900
H1547       H  0.08309951  0.96130993  0.12406622     0.44100
H1548       H  0.09239939  0.86545480  0.23163686     0.44100
C1549       C  0.15246097  0.86261948  0.27752254    -0.05000
C1550       C  0.15032416  0.83401634  0.26519822    -0.32400
C1551       C  0.15111046  0.82989059  0.23425995     0.36800
C1552       C  0.15417116  0.85465067  0.21485229    -0.05300
C1553       C  0.15817609  0.88313176  0.22700789    -0.32300
C1554       C  0.15733866  0.88730246  0.25815569     0.36800
H1555       H  0.14819069  0.81457039  0.27957043     0.17100
O1556       O  0.14744146  0.80169367  0.22323100    -0.59800
H1557       H  0.16199193  0.90220204  0.21228353     0.17100
O1558       O  0.16363607  0.91494514  0.26947873    -0.59900
H1559       H  0.14945310  0.92910488  0.25955864     0.44100
H1560       H  0.16693439  0.79146108  0.22632345     0.44100
C1561       C  0.11185996  0.83994201  0.39317565    -0.01200
C1562       C  0.08943977  0.81875982  0.38801276    -0.32400
C1563       C  0.06884904  0.81121585  0.41041970     0.36800
C1564       C  0.06980572  0.82570484  0.43825355    -0.05300
C1565       C  0.09227234  0.84670155  0.44354608    -0.32300
C1566       C  0.11326963  0.85372814  0.42141285     0.36800
H1567       H  0.08715843  0.80869778  0.36628198     0.17100
O1568       O  0.04670049  0.79117343  0.40416153    -0.59800
H1569       H  0.09354697  0.85779988  0.46498075     0.17100
O1570       O  0.13563523  0.87345437  0.42794458    -0.59900
H1571       H  0.12581550  0.89335352  0.42917137     0.44100
H1572       H  0.05581121  0.77123071  0.40789120     0.44100
C1573       C  0.11264567  0.90591169  0.31438925    -0.05000
C1574       C  0.11947154  0.93645168  0.31290927    -0.32400
C1575       C  0.09724556  0.95776514  0.30678457     0.36800
C1576       C  0.06750020  0.94871767  0.30345787    -0.05300
C1577       C  0.06066138  0.91811078  0.30386447    -0.32300
C1578       C  0.08315338  0.89666337  0.30909421     0.36800
H1579       H  0.14202267  0.94385220  0.31717748     0.17100
O1580       O  0.10438067  0.98756475  0.30642509    -0.59800
H1581       H  0.03769278  0.91097268  0.30167753     0.17100
O1582       O  0.07586437  0.86691480  0.31064378    -0.59900
H1583       H  0.07252379  0.86256258  0.33224397     0.44100
H1584       H  0.11046367  0.99201520  0.28547522     0.44100
C1585       C  0.18404100  0.90817336  0.38785697    -0.05000
C1586       C  0.17256316  0.93735838  0.38536138    -0.32400
C1587       C  0.17723373  0.95820970  0.40792839     0.36800
C1588       C  0.19366138  0.95018546  0.43375796    -0.05300
C1589       C  0.20682225  0.92157782  0.43567375    -0.32300
C1590       C  0.20191269  0.90046881  0.41298831     0.36800
H1591       H  0.15875391  0.94370882  0.36637130     0.17100
O1592       O  0.16454623  0.98611947  0.40509731    -0.59800
H1593       H  0.21921227  0.91494286  0.45563389     0.17100
O1594       O  0.21198240  0.87165508  0.41707323    -0.59900
H1595       H  0.23375301  0.87246555  0.41339185     0.44100
H1596       H  0.18030842  0.99888819  0.39617042     0.44100
C1597       C  0.14762378  0.65442297  0.29486075    -0.05000
C1598       C  0.17291307  0.64342958  0.28017021    -0.32400
C1599       C  0.17308833  0.64009218  0.24908237     0.36800
C1600       C  0.14756048  0.64752274  0.23215858    -0.05300
C1601       C  0.12182366  0.65775354  0.24676764    -0.32300
C1602       C  0.12171204  0.66116479  0.27804537     0.36800
H1603       H  0.19209511  0.63600514  0.29295267     0.17100
O1604       O  0.19783383  0.62821656  0.23554356    -0.59800
H1605       H  0.10204170  0.66359906  0.23385539     0.17100
O1606       O  0.09663723  0.67194026  0.29187729    -0.59900
H1607       H  0.08214161  0.65527045  0.29155989     0.44100
H1608       H  0.21193389  0.64510321  0.23331832     0.44100
C1609       C  0.14843394  0.79600422  0.35547651    -0.05000
C1610       C  0.16575970  0.78165905  0.37767153    -0.32400
C1611       C  0.16646091  0.75035617  0.38001382     0.36800
C1612       C  0.14954102  0.73308101  0.36012518    -0.05300
C1613       C  0.13206550  0.74735311  0.33803816    -0.32300
C1614       C  0.13113238  0.77870259  0.33582056     0.36800
H1615       H  0.17905300  0.79478030  0.39295309     0.17100
O1616       O  0.18377385  0.73678340  0.40173294    -0.59800
H1617       H  0.11887556  0.73415981  0.32272170     0.17100
O1618       O  0.11324687  0.79232062  0.31453497    -0.59900
H1619       H  0.09255754  0.78597610  0.31906873     0.44100
H1620       H  0.20431305  0.73686372  0.39351566     0.44100
C1621       C  0.10858795  0.61886603  0.34015813    -0.05000
C1622       C  0.08092234  0.61950868  0.35496121    -0.32400
C1623       C  0.05912999  0.59783882  0.34954916     0.36800
C1624       C  0.06443482  0.57524372  0.32853254    -0.05300
C1625       C  0.09185558  0.57444515  0.31362123    -0.32300
C1626       C  0.11415048  0.59553207  0.31975279     0.36800
H1627       H  0.07619978  0.63677062  0.37107989     0.17100
O1628       O  0.03235858  0.59945497  0.36427637    -0.59800
H1629       H  0.09653469  0.55656234  0.29811211     0.17100
O1630       O  0.14204084  0.59147807  0.30785974    -0.59900
H1631       H  0.13916098  0.59050777  0.28579951     0.44100
H1632       H  0.03549778  0.58816080  0.38334411     0.44100
C1633       C  0.19258185  0.57766361  0.45082135    -0.05000
C1634       C  0.20618547  0.57662357  0.42260992    -0.32400
C1635       C  0.20090715  0.59934543  0.40117193     0.36800
C1636       C  0.18209360  0.62361987  0.40825448    -0.05300
C1637       C  0.16970159  0.62514982  0.43702326    -0.32300
C1638       C  0.17450461  0.60230206  0.45809667     0.36800
H1639       H  0.21902665  0.55708725  0.41644691     0.17100
O1640       O  0.21164672  0.59609921  0.37261455    -0.59800
H1641       H  0.15509008  0.64349998  0.44280519     0.17100
O1642       O  0.16096972  0.60393363  0.48560448    -0.59900
H1643       H  0.14007286  0.59757687  0.48218342     0.44100
H1644       H  0.23362985  0.59793881  0.37440038     0.44100
C1645       C  0.11135755  0.69717453  0.40395253    -0.05000
C1646       C  0.11922255  0.69831098  0.43440684    -0.32400
C1647       C  0.09737708  0.70266375  0.45640931     0.36800
C1648       C  0.06727660  0.70649664  0.44799685    -0.05300
C1649       C  0.05974994  0.70768441  0.41740838    -0.32300
C1650       C  0.08163396  0.70311680  0.39536283     0.36800
H1651       H  0.14212113  0.69424722  0.44123978     0.17100
O1652       O  0.10540302  0.70165276  0.48615032    -0.59800
H1653       H  0.03661903  0.71043147  0.41066420     0.17100
O1654       O  0.07374557  0.70343896  0.36555520    -0.59900
H1655       H  0.05961952  0.68667633  0.36300013     0.44100
H1656       H  0.10449377  0.68020699  0.49207513     0.44100
C1657       C  0.35717251  0.64612977  0.23041785    -0.05000
C1658       C  0.37020906  0.67165531  0.24270071    -0.32400
C1659       C  0.36985408  0.67624606  0.27373457     0.36800
C1660       C  0.35778272  0.65429279  0.29290706    -0.05300
C1661       C  0.34513826  0.62852264  0.28070699    -0.32300
C1662       C  0.34403587  0.62477068  0.24959022     0.36800
H1663       H  0.38078830  0.68800448  0.22824860     0.17100
O1664       O  0.38129639  0.70214194  0.28523352    -0.59800
H1665       H  0.33536419  0.61173669  0.29535337     0.17100
O1666       O  0.32948063  0.60055942  0.23815649    -0.59900
H1667       H  0.30965891  0.60826585  0.23160802     0.44100
H1668       H  0.40308551  0.70126213  0.28156093     0.44100
C1669       C  0.22253597  0.66220547  0.36577838    -0.05000
C1670       C  0.23816064  0.66026965  0.33861015    -0.32400
C1671       C  0.26946790  0.65944307  0.33786256     0.36800
C1672       C  0.28610366  0.66138722  0.36463245    -0.05300
C1673       C  0.27063859  0.66453413  0.39179665    -0.32300
C1674       C  0.23928040  0.66508742  0.39252596     0.36800
H1675       H  0.22621363  0.65906505  0.31769163     0.17100
O1676       O  0.28353304  0.65515354  0.31095689    -0.59800
H1677       H  0.28292355  0.66712020  0.41256926     0.17100
O1678       O  0.22535421  0.66919098  0.41948415    -0.59900
H1679       H  0.22302950  0.69115324  0.42135026     0.44100
H1680       H  0.28045031  0.67399039  0.29930537     0.44100
C1681       C  0.32679428  0.62268419  0.40638180    -0.05000
C1682       C  0.30990311  0.59790800  0.39761041    -0.32400
C1683       C  0.30417271  0.57438880  0.41798296     0.36800
C1684       C  0.31549665  0.57553911  0.44743814    -0.05300
C1685       C  0.33133766  0.60082490  0.45647860    -0.32300
C1686       C  0.33700825  0.62427391  0.43622621     0.36800
H1687       H  0.30254674  0.59603687  0.37452622     0.17100
O1688       O  0.29022493  0.54909498  0.40814899    -0.59800
H1689       H  0.34007578  0.60202484  0.47914545     0.17100
O1690       O  0.35260403  0.64869847  0.44576738    -0.59900
H1691       H  0.37344067  0.64159456  0.44874459     0.44100
H1692       H  0.26929391  0.55521854  0.40410984     0.44100
C1693       C  0.43933909  0.57177792  0.32439985    -0.05000
C1694       C  0.44172463  0.59994251  0.31042543    -0.32400
C1695       C  0.42098833  0.62278532  0.31638700     0.36800
C1696       C  0.39696171  0.61725196  0.33598198    -0.05300
C1697       C  0.39434718  0.58890633  0.34950211    -0.32300
C1698       C  0.41526694  0.56625967  0.34391235     0.36800
H1699       H  0.46057605  0.60475245  0.29603126     0.17100
O1700       O  0.42591467  0.65105847  0.30524226    -0.59800
H1701       H  0.37619405  0.58442132  0.36488479     0.17100
O1702       O  0.41247789  0.53902136  0.35820127    -0.59900
H1703       H  0.39352704  0.53049063  0.35068634     0.44100
H1704       H  0.42663852  0.64907269  0.28307984     0.44100
C1705       C  0.44183260  0.70083103  0.44651433    -0.05000
C1706       C  0.45061826  0.69257759  0.41765059    -0.32400
C1707       C  0.42942738  0.68896687  0.39496613     0.36800
C1708       C  0.39906939  0.69392164  0.40096645    -0.05300
C1709       C  0.39040340  0.70409853  0.42928075    -0.32300
C1710       C  0.41158543  0.70710372  0.45227310     0.36800
H1711       H  0.47381970  0.68737098  0.41315086     0.17100
O1712       O  0.43829496  0.67829442  0.36769749    -0.59800
H1713       H  0.36695559  0.70730733  0.43421798     0.17100
O1714       O  0.40209019  0.71279816  0.48087350    -0.59900
H1715       H  0.40852139  0.73348920  0.48507596     0.44100
H1716       H  0.44267731  0.69633081  0.35533510     0.44100
C1717       C  0.36063847  0.85549311  0.21190383    -0.05000
C1718       C  0.34353291  0.87810250  0.22512282    -0.32400
C1719       C  0.34221283  0.88054811  0.25642697     0.36800
C1720       C  0.35872026  0.86070178  0.27486636    -0.05300
C1721       C  0.37627047  0.83847939  0.26169203    -0.32300
C1722       C  0.37760062  0.83596241  0.23037109     0.36800
H1723       H  0.33081972  0.89358925  0.21113311     0.17100
O1724       O  0.32451585  0.90218447  0.26882844    -0.59800
H1725       H  0.38923271  0.82326527  0.27571234     0.17100
O1726       O  0.39558239  0.81451463  0.21787231    -0.59900
H1727       H  0.41609153  0.81841441  0.22522737     0.44100
H1728       H  0.30489624  0.89247506  0.27191168     0.44100
C1729       C  0.28652642  0.86690783  0.34592791    -0.05000
C1730       C  0.27107243  0.83979351  0.34799279    -0.32400
C1731       C  0.23992853  0.83913097  0.34960455     0.36800
C1732       C  0.22340349  0.86601747  0.34870818    -0.05300
C1733       C  0.23865473  0.89315540  0.34477358    -0.32300
C1734       C  0.26987570  0.89375502  0.34315144     0.36800
H1735       H  0.28304478  0.81885461  0.34884144     0.17100
O1736       O  0.22599780  0.81213357  0.35365998    -0.59800
H1737       H  0.22630531  0.91397487  0.34250431     0.17100
O1738       O  0.28371167  0.92067830  0.33845849    -0.59900
H1739       H  0.28868440  0.92126356  0.31680995     0.44100
H1740       H  0.22885584  0.80120417  0.33464779     0.44100
C1741       C  0.35971396  0.73237995  0.35941964    -0.05000
C1742       C  0.38543993  0.74713114  0.34929341    -0.32400
C1743       C  0.38596414  0.77847664  0.34665751     0.36800
C1744       C  0.36066885  0.79539801  0.35456584    -0.05300
C1745       C  0.33544495  0.78057664  0.36565575    -0.32300
C1746       C  0.33462824  0.74932595  0.36760776     0.36800
H1747       H  0.40489748  0.73430647  0.34286652     0.17100
O1748       O  0.41124738  0.79238506  0.33651209    -0.59800
H1749       H  0.31657790  0.79326047  0.37356210     0.17100
O1750       O  0.30961428  0.73555982  0.37863703    -0.59900
H1751       H  0.29630548  0.73305366  0.36102156     0.44100
H1752       H  0.41025823  0.79110219  0.31435168     0.44100
C1753       C  0.31487479  0.95094382  0.42957599    -0.05000
C1754       C  0.30023157  0.92325417  0.42974826    -0.32400
C1755       C  0.30664886  0.90184306  0.40783671     0.36800
C1756       C  0.32695865  0.90857621  0.38457605    -0.05300
C1757       C  0.34010109  0.93698721  0.38367832    -0.32300
C1758       C  0.33431798  0.95797377  0.40584632     0.36800
H1759       H  0.28544822  0.91739209  0.44805273     0.17100
O1760       O  0.29445552  0.87389373  0.41054597    -0.59800
H1761       H  0.35577136  0.94273298  0.36621000     0.17100
O1762       O  0.34867705  0.98499288  0.40470728    -0.59900
H1763       H  0.33593977  0.99805835  0.39176747     0.44100
H1764       H  0.30908206  0.86200596  0.42255037     0.44100
C1765       C  0.40075507  0.83983696  0.38942316    -0.05000
C1766       C  0.39534349  0.81728603  0.41111281    -0.32400
C1767       C  0.41685771  0.80976312  0.43302570     0.36800
C1768       C  0.44380559  0.82566295  0.43443380    -0.05300
C1769       C  0.44914953  0.84826983  0.41315198    -0.32300
C1770       C  0.42819766  0.85522840  0.39069881     0.36800
H1771       H  0.37417657  0.80580057  0.41159771     0.17100
O1772       O  0.41070615  0.78782843  0.45378670    -0.59800
H1773       H  0.46993983  0.86052645  0.41373598     0.17100
O1774       O  0.43540811  0.87635667  0.36940126    -0.59900
H1775       H  0.43701584  0.89554130  0.38021421     0.44100
H1776       H  0.41996235  0.76949841  0.44559623     0.44100
C1777       C  0.39589657  0.90508584  0.30980359    -0.05000
C1778       C  0.38792581  0.93544641  0.30980283    -0.32400
C1779       C  0.40939732  0.95753852  0.30481223     0.36800
C1780       C  0.43927862  0.94930010  0.29997321    -0.05300
C1781       C  0.44679143  0.91892978  0.29736726    -0.32300
C1782       C  0.42510155  0.89674188  0.30186295     0.36800
H1783       H  0.36529590  0.94203853  0.31513582     0.17100
O1784       O  0.40151670  0.98709061  0.30731161    -0.59800
H1785       H  0.46975724  0.91238949  0.29342771     0.17100
O1786       O  0.43270022  0.86703587  0.29960426    -0.59900
H1787       H  0.44821691  0.86312506  0.31509460     0.44100
H1788       H  0.39634683  0.99379332  0.28661800     0.44100
C1789       C  0.33865392  0.84479522  0.82840848     0.46000
H1790       H  0.32505394  0.82886804  0.81526574    -0.03100
C1791       C  0.37091892  0.88206761  0.85841554     0.46000
H1792       H  0.38421631  0.89838359  0.87119621    -0.03100
C1793       C  0.35896045  0.86436795  0.80858021    -0.16800
C1794       C  0.31998640  0.86718511  0.84676547    -0.16500
C1795       C  0.35990137  0.82940542  0.85127422    -0.16900
C1796       C  0.37574546  0.88409789  0.82440337    -0.16900
C1797       C  0.33723100  0.88654913  0.86312237    -0.16400
C1798       C  0.37741864  0.84910433  0.86703333    -0.16800
C1799       C  0.37029895  0.64951666  0.87679689     0.46000
H1800       H  0.38486994  0.63591156  0.89199755    -0.03100
C1801       C  0.33656915  0.68153002  0.84117506     0.46000
H1802       H  0.32245579  0.69546430  0.82587823    -0.03100
C1803       C  0.33680718  0.64530802  0.88259357    -0.16800
C1804       C  0.37560127  0.68315258  0.87916643    -0.16500
C1805       C  0.37485213  0.64239766  0.84360235    -0.16900
C1806       C  0.31871848  0.66203536  0.86366871    -0.16900
C1807       C  0.35788647  0.70019932  0.86057224    -0.16400
C1808       C  0.35698227  0.65923004  0.82475879    -0.16800
C1809       C  0.16962688  0.68034637  0.84368639     0.46000
H1810       H  0.18310105  0.69374146  0.82758964    -0.03100
C1811       C  0.13734562  0.64985052  0.88126731     0.46000
H1812       H  0.12350783  0.63684403  0.89736693    -0.03100
C1813       C  0.14872176  0.65771379  0.82847750    -0.16800
C1814       C  0.18849802  0.66181902  0.86642571    -0.16500
C1815       C  0.14899704  0.69976322  0.86311724    -0.16900
C1816       C  0.13167189  0.64148546  0.84836552    -0.16900
C1817       C  0.17115472  0.64537876  0.88606079    -0.16400
C1818       C  0.13207859  0.68370896  0.88294296    -0.16800
C1819       C  0.13972201  0.88119177  0.86141052     0.46000
H1820       H  0.12556302  0.89713241  0.87403108    -0.03100
C1821       C  0.17214554  0.84383944  0.83141145     0.46000
H1822       H  0.18587100  0.82786667  0.81842223    -0.03100
C1823       C  0.17329612  0.88483837  0.86707182    -0.16800
C1824       C  0.13319578  0.84825154  0.86914773    -0.16500
C1825       C  0.13585907  0.88429151  0.82720924    -0.16900
C1826       C  0.19061400  0.86513230  0.85112161    -0.16900
C1827       C  0.14991675  0.82854035  0.85283423    -0.16400
C1828       C  0.15315497  0.86470522  0.81125604    -0.16800
C1829       C  0.17486177  0.82878269  0.66572374     0.46000
H1830       H  0.18941900  0.81518088  0.68091973    -0.03100
C1831       C  0.14102743  0.86047348  0.62996210     0.46000
H1832       H  0.12657629  0.87393240  0.61450500    -0.03100
C1833       C  0.15482129  0.85154358  0.68213032    -0.16800
C1834       C  0.19239106  0.84763001  0.64272985    -0.16500
C1835       C  0.15333571  0.80997095  0.64679586    -0.16900
C1836       C  0.13694187  0.86833575  0.66307032    -0.16900
C1837       C  0.17438018  0.86438588  0.62401445    -0.16400
C1838       C  0.13534598  0.82678310  0.62813647    -0.16800
C1839       C  0.37260443  0.85790969  0.62689371     0.46000
H1840       H  0.38722751  0.86956252  0.61050554    -0.03100
C1841       C  0.33935061  0.82988037  0.66543483     0.46000
H1842       H  0.32481821  0.81817683  0.68179688    -0.03100
C1843       C  0.33915819  0.86417453  0.62225265    -0.16800
C1844       C  0.37576133  0.82371365  0.62584751    -0.16500
C1845       C  0.37919037  0.86652054  0.65952004    -0.16900
C1846       C  0.32152046  0.84946529  0.64282148    -0.16900
C1847       C  0.35798978  0.80858030  0.64593827    -0.16400
C1848       C  0.36200815  0.85121686  0.67994425    -0.16800
C1849       C  0.13484249  0.62977270  0.64932571     0.46000
H1850       H  0.11997949  0.61501590  0.63619449    -0.03100
C1851       C  0.16917624  0.66438158  0.68029976     0.46000
H1852       H  0.18380090  0.67929158  0.69355797    -0.03100
C1853       C  0.16815559  0.62295171  0.64518303    -0.16800
C1854       C  0.13116104  0.66305076  0.64104715    -0.16500
C1855       C  0.12941511  0.62775713  0.68323483    -0.16900
C1856       C  0.18633874  0.64138131  0.66142583    -0.16900
C1857       C  0.14897549  0.68138154  0.65781948    -0.16400
C1858       C  0.14767158  0.64574531  0.69963792    -0.16800
C1859       C  0.33293131  0.66266320  0.67718034     0.46000
H1860       H  0.31872136  0.67802461  0.69042377    -0.03100
C1861       C  0.36603362  0.62617734  0.64693010     0.46000
H1862       H  0.38057751  0.61066559  0.63420449    -0.03100
C1863       C  0.35301500  0.64250704  0.69692120    -0.16800
C1864       C  0.31497787  0.64098242  0.65772630    -0.16500
C1865       C  0.35408405  0.67868715  0.65514008    -0.16900
C1866       C  0.37036032  0.62322212  0.68092485    -0.16900
C1867       C  0.33248941  0.62165730  0.64161982    -0.16400
C1868       C  0.37183598  0.65924924  0.63930098    -0.16800
O1869       O  0.03299180  0.53203791  0.67590147    -0.71300
O1870       O  0.47623147  0.97334923  0.66407261    -0.71500
O1871       O  0.47453670  0.53313679  0.67512782    -0.71400
O1872       O  0.03640837  0.97312117  0.66331628    -0.71400
O1873       O  0.03699662  0.96446300  0.71139000    -0.71300
O1874       O  0.47207080  0.52284234  0.72286590    -0.71400
O1875       O  0.47693550  0.96269068  0.71176328    -0.71300
O1876       O  0.03266414  0.52346355  0.72403768    -0.71500
V1877       V  0.00371153  0.50245836  0.67104542     1.35200
V1878       V  0.00335548  0.49331847  0.71712219     1.35200
C1879       C  0.04230895  0.53834275  0.70177853     0.77900
C1880       C  0.46650516  0.95792176  0.68581658     0.78000
C1881       C  0.46327363  0.53823106  0.70044911     0.77900
C1882       C  0.04736646  0.95910184  0.68564129     0.77800
O1883       O  0.03534237  0.97853201  0.83206695    -0.71300
O1884       O  0.47167259  0.53492606  0.84217697    -0.71500
O1885       O  0.47583663  0.97484478  0.82823235    -0.71400
O1886       O  0.03219097  0.53643392  0.84459359    -0.71400
O1887       O  0.03540580  0.54452115  0.79651409    -0.71300
O1888       O  0.47456190  0.98602535  0.78061462    -0.71400
O1889       O  0.47470086  0.54583471  0.79464911    -0.71300
O1890       O  0.03508117  0.98572135  0.78371092    -0.71500
V1891       V  0.00318829  0.50665827  0.83695535     1.35200
V1892       V  0.00496120  0.51555651  0.79087700     1.35200
C1893       C  0.04554327  0.97215338  0.80655862     0.77900
C1894       C  0.46272213  0.55033989  0.81989888     0.78000
C1895       C  0.46518657  0.97037992  0.80243754     0.77900
C1896       C  0.04365613  0.55066994  0.82287862     0.77800
O1897       O  0.21701288  0.97658177  0.97363714    -0.71300
O1898       O  0.21611490  0.53462193  0.53743103    -0.71500
O1899       O  0.21776254  0.97379091  0.53398871    -0.71400
O1900       O  0.21766564  0.53728699  0.97759363    -0.71400
O1901       O  0.16967450  0.54116263  0.98343696    -0.71300
O1902       O  0.17005328  0.96782051  0.52756423    -0.71400
O1903       O  0.16826398  0.52760098  0.54040247    -0.71300
O1904       O  0.16926462  0.98335412  0.96772632    -0.71500
V1905       V  0.21682497  0.50597309  0.50600109     1.35200
V1906       V  0.17048741  0.50558396  0.50437075     1.35200
C1907       C  0.19327708  0.97105174  0.95932240     0.77900
C1908       C  0.19157952  0.53981515  0.55043638     0.78000
C1909       C  0.19424903  0.95921517  0.53953931     0.77900
C1910       C  0.19340523  0.55096683  0.97187170     0.77800
O1911       O  0.47369313  0.66314813  0.53646865    -0.71300
O1912       O  0.03542789  0.67844402  0.97848402    -0.71500
O1913       O  0.03262722  0.66643280  0.53665165    -0.71400
O1914       O  0.47477647  0.67417274  0.97697410    -0.71400
O1915       O  0.47071135  0.72195969  0.98475634    -0.71300
O1916       O  0.03261752  0.71458511  0.54293527    -0.71400
O1917       O  0.03169555  0.72651264  0.98448897    -0.71300
O1918       O  0.47253426  0.71083886  0.54525921    -0.71500
V1919       V  0.00394583  0.67177869  0.50580638     1.35200
V1920       V  0.00183418  0.71769608  0.51350604     1.35200
C1921       C  0.46265014  0.68485108  0.55065303     0.77900
C1922       C  0.04397088  0.70449650  0.97170620     0.78000
C1923       C  0.04292052  0.68899671  0.54984629     0.77900
C1924       C  0.46271850  0.69903248  0.97053079     0.77800
O1925       O  0.33640234  0.98332669  0.96571188    -0.71300
O1926       O  0.33706012  0.52558286  0.53882824    -0.71500
O1927       O  0.33726709  0.96809833  0.52392300    -0.71400
O1928       O  0.33991482  0.54076027  0.98003451    -0.71400
O1929       O  0.29210565  0.53625626  0.97320796    -0.71300
O1930       O  0.28928198  0.97115604  0.53020475    -0.71400
O1931       O  0.28916050  0.53192780  0.53388641    -0.71300
O1932       O  0.28850990  0.97706602  0.96941624    -0.71500
V1933       V  0.33670768  0.50362086  0.50285218     1.35200
V1934       V  0.29031335  0.50380727  0.50208139     1.35200
C1935       C  0.31273279  0.97171929  0.95585468     0.77900
C1936       C  0.31305138  0.53707377  0.54813307     0.78000
C1937       C  0.31386390  0.95816877  0.53608636     0.77900
C1938       C  0.31610661  0.55005119  0.96766882     0.77800
O1939       O  0.47722369  0.84344464  0.97223508    -0.71300
O1940       O  0.03094041  0.83350835  0.53559294    -0.71500
O1941       O  0.03741777  0.84230121  0.97654030    -0.71400
O1942       O  0.47269636  0.83171215  0.53048675    -0.71400
O1943       O  0.47691972  0.78341078  0.52646149    -0.71300
O1944       O  0.03433933  0.79533231  0.96504002    -0.71400
O1945       O  0.03649876  0.78629400  0.52592075    -0.71300
O1946       O  0.47420648  0.79528987  0.96695093    -0.71500
V1947       V  0.00456212  0.83702854  0.50277150     1.35200
V1948       V  0.00569002  0.79096948  0.49617504     1.35200
C1949       C  0.46572881  0.82135990  0.95921996     0.77900
C1950       C  0.04313541  0.80868073  0.54176759     0.78000
C1951       C  0.04627431  0.82063618  0.96088769     0.77900
C1952       C  0.46480000  0.80576538  0.53859284     0.77800
C1953       C  0.32200427  0.59830207  0.62064377    -0.05000
C1954       C  0.33626581  0.57027897  0.62192260    -0.32400
C1955       C  0.33261844  0.54967980  0.59895888     0.36800
C1956       C  0.31353099  0.55643069  0.57462585    -0.05300
C1957       C  0.29732072  0.58337182  0.57441626    -0.32300
C1958       C  0.30174526  0.60454564  0.59698468     0.36800
H1959       H  0.35160138  0.56488781  0.64009110     0.17100
O1960       O  0.34812877  0.52311423  0.60029064    -0.59800
H1961       H  0.28287551  0.58897347  0.55558671     0.17100
O1962       O  0.28865720  0.63224246  0.59394160    -0.59900
H1963       H  0.26692915  0.62884057  0.59631227     0.44100
H1964       H  0.36857986  0.52799087  0.59343095     0.44100
C1965       C  0.39463851  0.66759677  0.61653974    -0.05000
C1966       C  0.39410285  0.65317597  0.58877059    -0.32400
C1967       C  0.41584040  0.65901610  0.56708376     0.36800
C1968       C  0.43870270  0.67968230  0.57285241    -0.05300
C1969       C  0.43906194  0.69453803  0.60043218    -0.32300
C1970       C  0.41758850  0.68818685  0.62245151     0.36800
H1971       H  0.37664029  0.63728148  0.58383007     0.17100
O1972       O  0.41445625  0.64445912  0.54021424    -0.59800
H1973       H  0.45669567  0.71023484  0.60535063     0.17100
O1974       O  0.41980767  0.70149812  0.64990014    -0.59900
H1975       H  0.43201921  0.68753422  0.66239559     0.44100
H1976       H  0.40221648  0.65762725  0.52689566     0.44100
C1977       C  0.39371865  0.60324882  0.69354034    -0.05000
C1978       C  0.42348993  0.61197380  0.69039491    -0.32400
C1979       C  0.44664440  0.59125107  0.69467145     0.36800
C1980       C  0.44017795  0.56151035  0.70291078    -0.05300
C1981       C  0.41051670  0.55318531  0.70790942    -0.32300
C1982       C  0.38717928  0.57379503  0.70286837     0.36800
H1983       H  0.42868382  0.63441329  0.68263655     0.17100
O1984       O  0.47548504  0.59993267  0.68956579    -0.59800
H1985       H  0.40528790  0.53010740  0.71336471     0.17100
O1986       O  0.35817563  0.56418838  0.70388563    -0.59900
H1987       H  0.35527820  0.55601244  0.72446307     0.44100
H1988       H  0.47850125  0.59768614  0.66767403     0.44100
C1989       C  0.21932666  0.64062034  0.66063249    -0.05000
C1990       C  0.23464016  0.66700915  0.65360615    -0.32400
C1991       C  0.26577539  0.66726730  0.65236773     0.36800
C1992       C  0.28203269  0.64082998  0.65835009    -0.05300
C1993       C  0.26681685  0.61450268  0.66596421    -0.32300
C1994       C  0.23557923  0.61422911  0.66707561     0.36800
H1995       H  0.22242869  0.68744355  0.64870774     0.17100
O1996       O  0.28008866  0.69304192  0.64380539    -0.59800
H1997       H  0.27920708  0.59424224  0.67141924     0.17100
O1998       O  0.22117124  0.58861975  0.67597290    -0.59900
H1999       H  0.22497107  0.57390192  0.65995314     0.44100
H2000       H  0.27930663  0.70620439  0.66152662     0.44100
C2001       C  0.06675595  0.68508174  0.57234486    -0.05000
C2002       C  0.08905089  0.66366768  0.56730624    -0.32400
C2003       C  0.11107484  0.65781449  0.58883038     0.36800
C2004       C  0.11060978  0.67278291  0.61645586    -0.05300
C2005       C  0.08849303  0.69460144  0.62127234    -0.32300
C2006       C  0.06689741  0.70112575  0.59927696     0.36800
H2007       H  0.08939011  0.65135146  0.54652312     0.17100
O2008       O  0.13265045  0.63690613  0.58279057    -0.59800
H2009       H  0.08685773  0.70554644  0.64257288     0.17100
O2010       O  0.04524197  0.72211118  0.60493563    -0.59900
H2011       H  0.02835494  0.71071314  0.61362190     0.44100
H2012       H  0.14914135  0.64833045  0.57340507     0.44100
C2013       C  0.18958816  0.55977973  0.57649580    -0.05000
C2014       C  0.17170487  0.55133200  0.60088449    -0.32400
C2015       C  0.16614220  0.57119378  0.62426295     0.36800
C2016       C  0.17826236  0.60016191  0.62335137    -0.05300
C2017       C  0.19734502  0.60817413  0.59964857    -0.32300
C2018       C  0.20309118  0.58816381  0.57632425     0.36800
H2019       H  0.16159141  0.52936921  0.60156931     0.17100
O2020       O  0.14921402  0.56199804  0.64822877    -0.59800
H2021       H  0.20652086  0.63051717  0.59838556     0.17100
O2022       O  0.22045280  0.59720771  0.55265563    -0.59900
H2023       H  0.20625774  0.60534726  0.53743869     0.44100
H2024       H  0.12848690  0.56061405  0.64047967     0.44100
C2025       C  0.06297861  0.56350936  0.70481906    -0.05000
C2026       C  0.05526175  0.59037234  0.69014347    -0.32400
C2027       C  0.07637539  0.61265872  0.68547146     0.36800
C2028       C  0.10582494  0.60822681  0.69543669    -0.05300
C2029       C  0.11317437  0.58242588  0.71234888    -0.32300
C2030       C  0.09179342  0.55996108  0.71709138     0.36800
H2031       H  0.03320671  0.59334093  0.68056581     0.17100
O2032       O  0.06837682  0.63831405  0.67009409    -0.59800
H2033       H  0.13593268  0.57874709  0.71990492     0.17100
O2034       O  0.09988586  0.53382497  0.73149549    -0.59900
H2035       H  0.10802228  0.52081677  0.71559368     0.44100
H2036       H  0.06605411  0.63233426  0.64886000     0.44100
C2037       C  0.35583195  0.77523170  0.64837140    -0.05000
C2038       C  0.35275103  0.75796326  0.62240946    -0.32400
C2039       C  0.35219103  0.72659111  0.62397508     0.36800
C2040       C  0.35410274  0.71188881  0.65203743    -0.05300
C2041       C  0.35453186  0.72914939  0.67802024    -0.32300
C2042       C  0.35528315  0.76038338  0.67644768     0.36800
H2043       H  0.34976436  0.76868208  0.60081334     0.17100
O2044       O  0.34766155  0.71063192  0.59826679    -0.59800
H2045       H  0.35421355  0.71851812  0.69985813     0.17100
O2046       O  0.35604047  0.77598749  0.70263889    -0.59900
H2047       H  0.33601244  0.77351457  0.71170580     0.44100
H2048       H  0.36482561  0.71531043  0.58505914     0.44100
C2049       C  0.44215320  0.80225487  0.56191086    -0.05000
C2050       C  0.45023806  0.80632865  0.59197913    -0.32400
C2051       C  0.42829888  0.81032209  0.61385115     0.36800
C2052       C  0.39799417  0.81023690  0.60562714    -0.05300
C2053       C  0.39002745  0.80419106  0.57584800    -0.32300
C2054       C  0.41192342  0.79989373  0.55406124     0.36800
H2055       H  0.47353789  0.80822113  0.59817227     0.17100
O2056       O  0.43662490  0.81621467  0.64282509    -0.59800
H2057       H  0.36683094  0.80468630  0.56903579     0.17100
O2058       O  0.40356704  0.79615581  0.52473130    -0.59900
H2059       H  0.40466892  0.77427417  0.52152460     0.44100
H2060       H  0.44109786  0.83792051  0.64301378     0.44100
C2061       C  0.32845767  0.88581294  0.59873527    -0.05000
C2062       C  0.30946971  0.90967762  0.60638969    -0.32400
C2063       C  0.30314693  0.93280952  0.58564769     0.36800
C2064       C  0.31597774  0.93230473  0.55685587    -0.05300
C2065       C  0.33407193  0.90808565  0.54894879    -0.32300
C2066       C  0.34009478  0.88488896  0.56943256     0.36800
H2067       H  0.30090525  0.91127961  0.62900314     0.17100
O2068       O  0.28694416  0.95713931  0.59475569    -0.59800
H2069       H  0.34414649  0.90743793  0.52689561     0.17100
O2070       O  0.35819799  0.86182744  0.56077086    -0.59900
H2071       H  0.34571997  0.84963499  0.54722459     0.44100
H2072       H  0.26733799  0.95529288  0.58468609     0.44100
C2073       C  0.44355084  0.93494766  0.68052565    -0.05000
C2074       C  0.42226092  0.93972039  0.65775471    -0.32400
C2075       C  0.40102810  0.91788124  0.65111074     0.36800
C2076       C  0.40101740  0.89042134  0.66710284    -0.05300
C2077       C  0.42254584  0.88564971  0.68970919    -0.32300
C2078       C  0.44330294  0.90779939  0.69684325     0.36800
H2079       H  0.42190643  0.96062792  0.64515078     0.17100
O2080       O  0.37967117  0.92410685  0.62973413    -0.59800
H2081       H  0.42389879  0.86443411  0.70142949     0.17100
O2082       O  0.46427736  0.90200535  0.71867501    -0.59900
H2083       H  0.45439518  0.90703818  0.73764864     0.44100
H2084       H  0.39033505  0.92426384  0.61027914     0.44100
C2085       C  0.15216058  0.77702992  0.64945131    -0.05000
C2086       C  0.13146243  0.76354266  0.66872200    -0.32400
C2087       C  0.13097918  0.73232712  0.67247314     0.36800
C2088       C  0.14970918  0.71433486  0.65489067    -0.05300
C2089       C  0.17034962  0.72784742  0.63556055    -0.32300
C2090       C  0.17244543  0.75905418  0.63369680     0.36800
H2091       H  0.11608318  0.77725317  0.68130543     0.17100
O2092       O  0.11298551  0.71945874  0.69390103    -0.59800
H2093       H  0.18516468  0.71418402  0.62228599     0.17100
O2094       O  0.19402823  0.77180971  0.61604264    -0.59900
H2095       H  0.21119658  0.77509714  0.62970106     0.44100
H2096       H  0.09248318  0.72706754  0.68994552     0.44100
C2097       C  0.22546209  0.84808341  0.64215920    -0.05000
C2098       C  0.24100294  0.85446735  0.66862121    -0.32400
C2099       C  0.27221941  0.85536811  0.66901054     0.36800
C2100       C  0.28838345  0.84992412  0.64259976    -0.05300
C2101       C  0.27282920  0.84314933  0.61617195    -0.32300
C2102       C  0.24155771  0.84225146  0.61577319     0.36800
H2103       H  0.22884485  0.85917454  0.68900899     0.17100
O2104       O  0.28668521  0.86274567  0.69502217    -0.59800
H2105       H  0.28498802  0.83795925  0.59591554     0.17100
O2106       O  0.22696859  0.83402669  0.59005604    -0.59900
H2107       H  0.23124020  0.84999909  0.57503737     0.44100
H2108       H  0.28476561  0.84501539  0.70847996     0.44100
C2109       C  0.11062820  0.81553637  0.60928256    -0.05000
C2110       C  0.08223049  0.82782513  0.61382061    -0.32400
C2111       C  0.05953283  0.82412715  0.59269998     0.36800
C2112       C  0.06470395  0.80706088  0.56685001    -0.05300
C2113       C  0.09237774  0.79266442  0.56341172    -0.32300
C2114       C  0.11557510  0.79740298  0.58411137     0.36800
H2115       H  0.07815251  0.84196309  0.63297314     0.17100
O2116       O  0.03253656  0.83806824  0.59704241    -0.59800
H2117       H  0.09682534  0.77989343  0.54341072     0.17100
O2118       O  0.14345628  0.78631713  0.57815369    -0.59900
H2119       H  0.15348164  0.80223458  0.56627355     0.44100
H2120       H  0.03586409  0.85943463  0.59183555     0.44100
C2121       C  0.18458424  0.88650173  0.60148851    -0.05000
C2122       C  0.17398562  0.88413460  0.57203868    -0.32400
C2123       C  0.17883370  0.90704490  0.55111405     0.36800
C2124       C  0.19421996  0.93293532  0.55962988    -0.05300
C2125       C  0.20580795  0.93493387  0.58881037    -0.32300
C2126       C  0.20096633  0.91191442  0.60983305     0.36800
H2127       H  0.16105655  0.86483235  0.56554671     0.17100
O2128       O  0.16720186  0.90461252  0.52273463    -0.59800
H2129       H  0.21663633  0.95524870  0.59591868     0.17100
O2130       O  0.21056734  0.91539317  0.63884439    -0.59900
H2131       H  0.19260094  0.92144965  0.65024984     0.44100
H2132       H  0.18287875  0.89430330  0.51102828     0.44100
C2133       C  0.07157486  0.93688555  0.68156963    -0.05000
C2134       C  0.07202115  0.91042321  0.69888795    -0.32400
C2135       C  0.09344449  0.88798714  0.69377050     0.36800
C2136       C  0.11557437  0.89240369  0.67175514    -0.05300
C2137       C  0.11565285  0.91939173  0.65523219    -0.32300
C2138       C  0.09370365  0.94128332  0.65963992     0.36800
H2139       H  0.05483121  0.90648656  0.71547996     0.17100
O2140       O  0.09099426  0.86097426  0.70850861    -0.59800
H2141       H  0.13248332  0.92327475  0.63825295     0.17100
O2142       O  0.09438760  0.96714552  0.64272450    -0.59900
H2143       H  0.08446890  0.96214005  0.62351758     0.44100
H2144       H  0.09367173  0.86535303  0.73011842     0.44100
C2145       C  0.15384012  0.86231111  0.77800536    -0.05000
C2146       C  0.15012012  0.83407459  0.76529955    -0.32400
C2147       C  0.15109786  0.83026622  0.73429452     0.36800
C2148       C  0.15584749  0.85499246  0.71517742    -0.05300
C2149       C  0.16124161  0.88307446  0.72776713    -0.32300
C2150       C  0.16052101  0.88683946  0.75903763     0.36800
H2151       H  0.14663938  0.81467920  0.77943484     0.17100
O2152       O  0.14595812  0.80247145  0.72287092    -0.59800
H2153       H  0.16631314  0.90204215  0.71331818     0.17100
O2154       O  0.16879097  0.91370668  0.77095710    -0.59900
H2155       H  0.15587221  0.92909638  0.76114197     0.44100
H2156       H  0.16484397  0.79114745  0.72598155     0.44100
C2157       C  0.11196312  0.83951545  0.89331753    -0.01200
C2158       C  0.08885633  0.81926213  0.88759209    -0.32400
C2159       C  0.06809930  0.81175020  0.90984418     0.36800
C2160       C  0.06967126  0.82532059  0.93811258    -0.05300
C2161       C  0.09290383  0.84531704  0.94399408    -0.32300
C2162       C  0.11401941  0.85232081  0.92196679     0.36800
H2163       H  0.08618277  0.80997799  0.86554500     0.17100
O2164       O  0.04515837  0.79281233  0.90303728    -0.59800
H2165       H  0.09464961  0.85567174  0.96577587     0.17100
O2166       O  0.13704724  0.87110439  0.92893357    -0.59900
H2167       H  0.12798209  0.89136069  0.93006067     0.44100
H2168       H  0.05376045  0.77235501  0.90527288     0.44100
C2169       C  0.11394028  0.90585447  0.81438692    -0.05000
C2170       C  0.12134719  0.93626141  0.81255961    -0.32400
C2171       C  0.09935925  0.95804244  0.80711034     0.36800
C2172       C  0.06935605  0.94955032  0.80426372    -0.05300
C2173       C  0.06203222  0.91906435  0.80466431    -0.32300
C2174       C  0.08418498  0.89720890  0.80967509     0.36800
H2175       H  0.14410497  0.94323211  0.81641570     0.17100
O2176       O  0.10706968  0.98769707  0.80699953    -0.59800
H2177       H  0.03891352  0.91232549  0.80281898     0.17100
O2178       O  0.07632934  0.86763613  0.81172187    -0.59900
H2179       H  0.07069284  0.86431435  0.83299713     0.44100
H2180       H  0.10772349  0.99371295  0.78550977     0.44100
C2181       C  0.18411411  0.90783576  0.88832569    -0.05000
C2182       C  0.17338037  0.93722177  0.88486770    -0.32400
C2183       C  0.17773045  0.95839575  0.90719256     0.36800
C2184       C  0.19305516  0.95042989  0.93371363    -0.05300
C2185       C  0.20542095  0.92154942  0.93663811    -0.32300
C2186       C  0.20086421  0.90016432  0.91419547     0.36800
H2187       H  0.16039576  0.94349656  0.86529127     0.17100
O2188       O  0.16586534  0.98656472  0.90336438    -0.59800
H2189       H  0.21694518  0.91499600  0.95713979     0.17100
O2190       O  0.21008564  0.87119235  0.91915457    -0.59900
H2191       H  0.23197279  0.87136899  0.91607742     0.44100
H2192       H  0.18277369  0.99921470  0.89672176     0.44100
C2193       C  0.14760665  0.65456469  0.79540681    -0.05000
C2194       C  0.17262048  0.64309672  0.78058534    -0.32400
C2195       C  0.17261011  0.63985755  0.74947283     0.36800
C2196       C  0.14716593  0.64783569  0.73267074    -0.05300
C2197       C  0.12177801  0.65876729  0.74737854    -0.32300
C2198       C  0.12187607  0.66214415  0.77865583     0.36800
H2199       H  0.19166313  0.63514483  0.79327627     0.17100
O2200       O  0.19704350  0.62749734  0.73580839    -0.59800
H2201       H  0.10209525  0.66511814  0.73454087     0.17100
O2202       O  0.09717264  0.67365294  0.79255548    -0.59900
H2203       H  0.08268418  0.65698511  0.79344991     0.44100
H2204       H  0.21092319  0.64437532  0.73233992     0.44100
C2205       C  0.14841033  0.79556273  0.85617507    -0.05000
C2206       C  0.16528518  0.78111565  0.87867156    -0.32400
C2207       C  0.16544130  0.74984598  0.88123070     0.36800
C2208       C  0.14861307  0.73273770  0.86112958    -0.05300
C2209       C  0.13140301  0.74710348  0.83892515    -0.32300
C2210       C  0.13083122  0.77843315  0.83662611     0.36800
H2211       H  0.17858684  0.79412783  0.89403869     0.17100
O2212       O  0.18221197  0.73615352  0.90330253    -0.59800
H2213       H  0.11818109  0.73400505  0.82355292     0.17100
O2214       O  0.11307766  0.79221222  0.81533202    -0.59900
H2215       H  0.09239879  0.78553230  0.81941109     0.44100
H2216       H  0.20166232  0.73171940  0.89374478     0.44100
C2217       C  0.10923150  0.61827377  0.84026434    -0.05000
C2218       C  0.08118592  0.61913991  0.85419396    -0.32400
C2219       C  0.05972732  0.59726020  0.84862830     0.36800
C2220       C  0.06582396  0.57420182  0.82839060    -0.05300
C2221       C  0.09365037  0.57316465  0.81425359    -0.32300
C2222       C  0.11557611  0.59461815  0.82046267     0.36800
H2223       H  0.07591252  0.63676015  0.86974577     0.17100
O2224       O  0.03246382  0.59909165  0.86239273    -0.59800
H2225       H  0.09883298  0.55498064  0.79925544     0.17100
O2226       O  0.14376893  0.59076554  0.80921381    -0.59900
H2227       H  0.14135131  0.58933943  0.78713319     0.44100
H2228       H  0.03555181  0.59014424  0.88266147     0.44100
C2229       C  0.19208261  0.57737092  0.95179056    -0.05000
C2230       C  0.20598843  0.57663766  0.92369505    -0.32400
C2231       C  0.20101976  0.59958469  0.90238221     0.36800
C2232       C  0.18193520  0.62370526  0.90930353    -0.05300
C2233       C  0.16922393  0.62495601  0.93797260    -0.32300
C2234       C  0.17394291  0.60199554  0.95902498     0.36800
H2235       H  0.21893195  0.55719445  0.91749670     0.17100
O2236       O  0.21242993  0.59671135  0.87404962    -0.59800
H2237       H  0.15445555  0.64320197  0.94369861     0.17100
O2238       O  0.16039885  0.60359880  0.98652648    -0.59900
H2239       H  0.13941311  0.59757870  0.98302782     0.44100
H2240       H  0.23434876  0.59873620  0.87636618     0.44100
C2241       C  0.11085840  0.69674244  0.90476770    -0.05000
C2242       C  0.11918956  0.69849130  0.93506028    -0.32400
C2243       C  0.09773928  0.70386321  0.95722957     0.36800
C2244       C  0.06761404  0.70808486  0.94909161    -0.05300
C2245       C  0.05973238  0.70882770  0.91859830    -0.32300
C2246       C  0.08118511  0.70321558  0.89640769     0.36800
H2247       H  0.14211622  0.69421787  0.94167022     0.17100
O2248       O  0.10611622  0.70345298  0.98688202    -0.59800
H2249       H  0.03656699  0.71186064  0.91208887     0.17100
O2250       O  0.07289470  0.70305229  0.86671793    -0.59900
H2251       H  0.05815484  0.68672790  0.86479220     0.44100
H2252       H  0.10688719  0.68199136  0.99281102     0.44100
C2253       C  0.35450463  0.64587525  0.72978164    -0.05000
C2254       C  0.36899127  0.67079703  0.74157553    -0.32400
C2255       C  0.36859625  0.67619525  0.77243801     0.36800
C2256       C  0.35561426  0.65517447  0.79199618    -0.05300
C2257       C  0.34132678  0.63002812  0.78029725    -0.32300
C2258       C  0.33974635  0.62591523  0.74924796     0.36800
H2259       H  0.38068447  0.68608792  0.72685470     0.17100
O2260       O  0.38078251  0.70198810  0.78342481    -0.59800
H2261       H  0.33064058  0.61411146  0.79525982     0.17100
O2262       O  0.32319705  0.60283381  0.73817344    -0.59900
H2263       H  0.30329528  0.61163671  0.73360445     0.44100
H2264       H  0.40216195  0.70158156  0.77778258     0.44100
C2265       C  0.22195796  0.66265323  0.86641692    -0.05000
C2266       C  0.23722686  0.66043618  0.83909737    -0.32400
C2267       C  0.26846982  0.65981925  0.83797180     0.36800
C2268       C  0.28537595  0.66213576  0.86451592    -0.05300
C2269       C  0.27025389  0.66562244  0.89183360    -0.32300
C2270       C  0.23889087  0.66611306  0.89291554     0.36800
H2271       H  0.22503384  0.65887633  0.81835450     0.17100
O2272       O  0.28220953  0.65540920  0.81092773    -0.59800
H2273       H  0.28279811  0.66852849  0.91240226     0.17100
O2274       O  0.22508399  0.67063531  0.91988194    -0.59900
H2275       H  0.22717996  0.69229766  0.92382913     0.44100
H2276       H  0.27922671  0.67430063  0.79934036     0.44100
C2277       C  0.32669163  0.62340512  0.90569017    -0.05000
C2278       C  0.30981741  0.59846643  0.89734308    -0.32400
C2279       C  0.30496328  0.57485257  0.91782780     0.36800
C2280       C  0.31695722  0.57612241  0.94704412    -0.05300
C2281       C  0.33273505  0.60157336  0.95566424    -0.32300
C2282       C  0.33765718  0.62505712  0.93526208     0.36800
H2283       H  0.30191028  0.59651259  0.87444890     0.17100
O2284       O  0.29115063  0.54942892  0.90820703    -0.59800
H2285       H  0.34201096  0.60289347  0.97810493     0.17100
O2286       O  0.35338322  0.64955149  0.94437164    -0.59900
H2287       H  0.37434896  0.64258443  0.94659849     0.44100
H2288       H  0.26959824  0.55311892  0.91137459     0.44100
C2289       C  0.43896324  0.57312055  0.82370180    -0.05000
C2290       C  0.44097201  0.60102852  0.80906391    -0.32400
C2291       C  0.41995691  0.62381332  0.81458073     0.36800
C2292       C  0.39604303  0.61844007  0.83440432    -0.05300
C2293       C  0.39385268  0.59034099  0.84851661    -0.32300
C2294       C  0.41504737  0.56786218  0.84344109     0.36800
H2295       H  0.45968605  0.60568723  0.79444058     0.17100
O2296       O  0.42453192  0.65189643  0.80279163    -0.59800
H2297       H  0.37584018  0.58594558  0.86408876     0.17100
O2298       O  0.41256153  0.54096451  0.85839146    -0.59900
H2299       H  0.39482576  0.53118515  0.84956830     0.44100
H2300       H  0.42537711  0.64939942  0.78069037     0.44100
C2301       C  0.44068857  0.70079996  0.94612049    -0.05000
C2302       C  0.44955146  0.69211662  0.91740389    -0.32400
C2303       C  0.42853659  0.68896314  0.89448171     0.36800
C2304       C  0.39823625  0.69457028  0.90012639    -0.05300
C2305       C  0.38947604  0.70494853  0.92834253    -0.32300
C2306       C  0.41053497  0.70765878  0.95156602     0.36800
H2307       H  0.47270547  0.68652196  0.91311985     0.17100
O2308       O  0.43749206  0.67834089  0.86721920    -0.59800
H2309       H  0.36603775  0.70861118  0.93302812     0.17100
O2310       O  0.40114480  0.71385835  0.98010006    -0.59900
H2311       H  0.39449957  0.73504407  0.97948461     0.44100
H2312       H  0.44259663  0.69638740  0.85516063     0.44100
C2313       C  0.36306957  0.85571427  0.71283433    -0.05000
C2314       C  0.34710423  0.87947787  0.72544379    -0.32400
C2315       C  0.34575249  0.88261052  0.75665553     0.36800
C2316       C  0.36036042  0.86172915  0.77558273    -0.05300
C2317       C  0.37708784  0.83855969  0.76300011    -0.32300
C2318       C  0.37909179  0.83584358  0.73176407     0.36800
H2319       H  0.33536320  0.89536775  0.71103876     0.17100
O2320       O  0.33001144  0.90603068  0.76847258    -0.59800
H2321       H  0.38902777  0.82287691  0.77741706     0.17100
O2322       O  0.39697380  0.81400883  0.71982643    -0.59900
H2323       H  0.41749249  0.81809233  0.72704367     0.44100
H2324       H  0.31042741  0.89750868  0.77421091     0.44100
C2325       C  0.28671359  0.86716229  0.84614974    -0.05000
C2326       C  0.27162839  0.83994444  0.84948559    -0.32400
C2327       C  0.24051755  0.83903291  0.85159265     0.36800
C2328       C  0.22373937  0.86570703  0.84981622    -0.05300
C2329       C  0.23862278  0.89287033  0.84476900    -0.32300
C2330       C  0.26980898  0.89371635  0.84265576     0.36800
H2331       H  0.28388712  0.81919317  0.85095625     0.17100
O2332       O  0.22685353  0.81210419  0.85693733    -0.59800
H2333       H  0.22600872  0.91346509  0.84187550     0.17100
O2334       O  0.28345821  0.92050371  0.83669198    -0.59900
H2335       H  0.28158297  0.92355699  0.81468175     0.44100
H2336       H  0.22925238  0.80056615  0.83823407     0.44100
C2337       C  0.35895931  0.73328578  0.85890531    -0.05000
C2338       C  0.38431399  0.74778906  0.84755177    -0.32400
C2339       C  0.38518849  0.77917312  0.84526407     0.36800
C2340       C  0.36059664  0.79629605  0.85471020    -0.05300
C2341       C  0.33585164  0.78169520  0.86715882    -0.32300
C2342       C  0.33471646  0.75044573  0.86890097     0.36800
H2343       H  0.40324823  0.73474314  0.84006795     0.17100
O2344       O  0.41022091  0.79297922  0.83431278    -0.59800
H2345       H  0.31771886  0.79456244  0.87638949     0.17100
O2346       O  0.31037307  0.73689070  0.88160311    -0.59900
H2347       H  0.29626992  0.73368144  0.86476133     0.44100
H2348       H  0.41115811  0.78766100  0.81281123     0.44100
C2349       C  0.31425308  0.95197047  0.92956426    -0.05000
C2350       C  0.29971794  0.92422369  0.92986038    -0.32400
C2351       C  0.30614195  0.90276600  0.90796840     0.36800
C2352       C  0.32632347  0.90952740  0.88459107    -0.05300
C2353       C  0.33919801  0.93806061  0.88344717    -0.32300
C2354       C  0.33350405  0.95904193  0.90566883     0.36800
H2355       H  0.28508080  0.91833297  0.94827624     0.17100
O2356       O  0.29411679  0.87475202  0.91081851    -0.59800
H2357       H  0.35467021  0.94382808  0.86575619     0.17100
O2358       O  0.34783269  0.98607080  0.90444921    -0.59900
H2359       H  0.33396618  0.99974531  0.89347487     0.44100
H2360       H  0.30800793  0.86348003  0.92422967     0.44100
C2361       C  0.40065728  0.84069974  0.89007762    -0.05000
C2362       C  0.39589096  0.81713466  0.91082899    -0.32400
C2363       C  0.41745727  0.80955797  0.93262209     0.36800
C2364       C  0.44357776  0.82659315  0.93511198    -0.05300
C2365       C  0.44832293  0.85015108  0.91479923    -0.32300
C2366       C  0.42751390  0.85704069  0.89226577     0.36800
H2367       H  0.37519264  0.80486749  0.91078675     0.17100
O2368       O  0.41215307  0.78636006  0.95220710    -0.59800
H2369       H  0.46860464  0.86317542  0.91613216     0.17100
O2370       O  0.43441029  0.87903496  0.87176035    -0.59900
H2371       H  0.43569815  0.89785093  0.88324878     0.44100
H2372       H  0.42101840  0.76861426  0.94246901     0.44100
C2373       C  0.39736311  0.90523814  0.81100884    -0.05000
C2374       C  0.38972585  0.93561909  0.80870401    -0.32400
C2375       C  0.41151131  0.95703942  0.80230128     0.36800
C2376       C  0.44144973  0.94817016  0.79901689    -0.05300
C2377       C  0.44873046  0.91761005  0.79901555    -0.32300
C2378       C  0.42667050  0.89600882  0.80446221     0.36800
H2379       H  0.36707189  0.94283021  0.81314550     0.17100
O2380       O  0.40381525  0.98678220  0.80194047    -0.59800
H2381       H  0.47174166  0.91058896  0.79628246     0.17100
O2382       O  0.43390033  0.86607295  0.80438383    -0.59900
H2383       H  0.45040150  0.86325724  0.81904937     0.44100
H2384       H  0.40142127  0.99221551  0.78040792     0.44100
C2385       C  0.83967955  0.34349934  0.32843639     0.46000
H2386       H  0.82609576  0.32734536  0.31557291    -0.03100
C2387       C  0.87201012  0.38128196  0.35773378     0.46000
H2388       H  0.88550821  0.39770404  0.37023986    -0.03100
C2389       C  0.85974764  0.36289593  0.30815487    -0.16800
C2390       C  0.82102279  0.36611195  0.34661316    -0.16500
C2391       C  0.86108701  0.32848913  0.35144937    -0.16900
C2392       C  0.87648759  0.38297031  0.32363873    -0.16900
C2393       C  0.83836905  0.38566290  0.36269014    -0.16400
C2394       C  0.87859447  0.34849170  0.36673968    -0.16800
C2395       C  0.87046440  0.14822337  0.37688187     0.46000
H2396       H  0.88492711  0.13436104  0.39195446    -0.03100
C2397       C  0.83686511  0.18104555  0.34184313     0.46000
H2398       H  0.82271735  0.19522807  0.32680275    -0.03100
C2399       C  0.83695686  0.14419285  0.38267813    -0.16800
C2400       C  0.87600782  0.18182546  0.37969226    -0.16500
C2401       C  0.87481604  0.14151606  0.34349269    -0.16900
C2402       C  0.81901430  0.16133082  0.36408278    -0.16900
C2403       C  0.85834397  0.19927816  0.36143067    -0.16400
C2404       C  0.85704358  0.15888776  0.32499126    -0.16800
C2405       C  0.67031935  0.17861773  0.34217291     0.46000
H2406       H  0.68399753  0.19178316  0.32606329    -0.03100
C2407       C  0.63762169  0.14863237  0.37977450     0.46000
H2408       H  0.62368675  0.13585026  0.39596487    -0.03100
C2409       C  0.64988268  0.15543927  0.32706889    -0.16800
C2410       C  0.68892050  0.16072123  0.36563321    -0.16500
C2411       C  0.64916452  0.19831864  0.36080358    -0.16900
C2412       C  0.63254397  0.13950565  0.34697364    -0.16900
C2413       C  0.67135364  0.14455671  0.38525570    -0.16400
C2414       C  0.63202279  0.18249383  0.38065173    -0.16800
C2415       C  0.64088175  0.38001926  0.36268740     0.46000
H2416       H  0.62694661  0.39588952  0.37561220    -0.03100
C2417       C  0.67261024  0.34302343  0.33164983     0.46000
H2418       H  0.68607546  0.32721891  0.31821102    -0.03100
C2419       C  0.67457955  0.38338838  0.36806059    -0.16800
C2420       C  0.63408551  0.34697300  0.36995246    -0.16500
C2421       C  0.63659074  0.38374044  0.32859328    -0.16900
C2422       C  0.69152609  0.36388779  0.35145030    -0.16900
C2423       C  0.65049115  0.32743421  0.35300816    -0.16400
C2424       C  0.65344829  0.36426861  0.31207090    -0.16800
C2425       C  0.67408677  0.32905650  0.16637920     0.46000
H2426       H  0.68913344  0.31583802  0.18142684    -0.03100
C2427       C  0.63908587  0.35987612  0.13098615     0.46000
H2428       H  0.62405451  0.37299105  0.11579502    -0.03100
C2429       C  0.65316594  0.35081726  0.18300784    -0.16800
C2430       C  0.69087490  0.34884342  0.14361793    -0.16500
C2431       C  0.65340709  0.30968553  0.14714353    -0.16900
C2432       C  0.63475619  0.36717301  0.16415891    -0.16900
C2433       C  0.67224857  0.36514609  0.12505958    -0.16400
C2434       C  0.63480839  0.32601750  0.12871188    -0.16800
C2435       C  0.87082642  0.35941061  0.12599167     0.46000
H2436       H  0.88516377  0.37150443  0.10964224    -0.03100
C2437       C  0.83772882  0.33057181  0.16404339     0.46000
H2438       H  0.82302437  0.31875364  0.18012424    -0.03100
C2439       C  0.83740638  0.36602570  0.12209892    -0.16800
C2440       C  0.87380968  0.32529741  0.12377280    -0.16500
C2441       C  0.87787518  0.36689060  0.15885683    -0.16900
C2442       C  0.81987632  0.35103103  0.14236429    -0.16900
C2443       C  0.85607972  0.30968870  0.14363116    -0.16400
C2444       C  0.86075760  0.35117374  0.17904182    -0.16800
C2445       C  0.63703792  0.12980072  0.14732377     0.46000
H2446       H  0.62230798  0.11533835  0.13371244    -0.03100
C2447       C  0.67120592  0.16357628  0.17935729     0.46000
H2448       H  0.68570845  0.17817801  0.19308939    -0.03100
C2449       C  0.67036485  0.12291310  0.14341917    -0.16800
C2450       C  0.63345450  0.16327036  0.13976333    -0.16500
C2451       C  0.63135216  0.12697369  0.18113305    -0.16900
C2452       C  0.68851170  0.14099001  0.16013158    -0.16900
C2453       C  0.65121847  0.18110552  0.15708401    -0.16400
C2454       C  0.64957590  0.14448897  0.19811035    -0.16800
C2455       C  0.83540283  0.16391507  0.17667032     0.46000
H2456       H  0.82112203  0.17924507  0.18984535    -0.03100
C2457       C  0.86845934  0.12718207  0.14670510     0.46000
H2458       H  0.88296385  0.11150794  0.13414381    -0.03100
C2459       C  0.85595738  0.14443446  0.19659923    -0.16800
C2460       C  0.81737640  0.14170136  0.15789573    -0.16500
C2461       C  0.85601748  0.17975404  0.15395952    -0.16900
C2462       C  0.87306352  0.12480678  0.18075245    -0.16900
C2463       C  0.83487307  0.12236516  0.14174553    -0.16400
C2464       C  0.87398078  0.16023030  0.13842989    -0.16800
O2465       O  0.53437485  0.03093491  0.17289253    -0.71300
O2466       O  0.97605639  0.47209936  0.16381144    -0.71500
O2467       O  0.97482943  0.03234377  0.17374070    -0.71400
O2468       O  0.53598567  0.47266271  0.16505233    -0.71400
O2469       O  0.53598309  0.46446848  0.21321103    -0.71300
O2470       O  0.97380198  0.02319952  0.22176787    -0.71400
O2471       O  0.97558794  0.46259567  0.21174981    -0.71300
O2472       O  0.53468812  0.02221265  0.22100568    -0.71500
V2473       V  0.50502665  0.00137940  0.16833818     1.35200
V2474       V  0.50508158  0.99229629  0.21443117     1.35200
C2475       C  0.54410375  0.03710008  0.19865437     0.77900
C2476       C  0.96593930  0.45710823  0.18566381     0.78000
C2477       C  0.96421092  0.03791442  0.19925547     0.77900
C2478       C  0.54668386  0.45889007  0.18765254     0.77800
O2479       O  0.53529562  0.47776465  0.33483393    -0.71300
O2480       O  0.97149860  0.03469656  0.33937803    -0.71500
O2481       O  0.97389792  0.47637055  0.33090706    -0.71400
O2482       O  0.53093981  0.03647917  0.34250329    -0.71400
O2483       O  0.53388423  0.04457551  0.29441972    -0.71300
O2484       O  0.97436185  0.48658704  0.28306755    -0.71400
O2485       O  0.97289297  0.04451912  0.29153815    -0.71300
O2486       O  0.53507806  0.48459682  0.28642091    -0.71500
V2487       V  0.50243286  0.00617406  0.33497524     1.35200
V2488       V  0.50298707  0.01589502  0.28905406     1.35200
C2489       C  0.54554155  0.47125598  0.30938888     0.77900
C2490       C  0.96154872  0.04931227  0.31703010     0.78000
C2491       C  0.96406120  0.47152168  0.30485140     0.77900
C2492       C  0.54242887  0.05062905  0.32074081     0.77800
O2493       O  0.72077799  0.47604855  0.47401793    -0.71300
O2494       O  0.71553206  0.03394749  0.03549239    -0.71500
O2495       O  0.71743469  0.47260349  0.03440194    -0.71400
O2496       O  0.71640444  0.03651692  0.47688744    -0.71400
O2497       O  0.66853908  0.04104985  0.48330999    -0.71300
O2498       O  0.66981341  0.46781553  0.02640761    -0.71400
O2499       O  0.66786980  0.02633494  0.03972260    -0.71300
O2500       O  0.67290226  0.48177585  0.46831781    -0.71500
V2501       V  0.71578938  0.00548667  0.00398054     1.35200
V2502       V  0.66944932  0.00465862  0.00337423     1.35200
C2503       C  0.69709302  0.46995978  0.45978112     0.77900
C2504       C  0.69129513  0.03889418  0.04909783     0.78000
C2505       C  0.69343940  0.45849127  0.03896082     0.77900
C2506       C  0.69231273  0.05059807  0.47158646     0.77800
O2507       O  0.97580420  0.16440444  0.03515446    -0.71300
O2508       O  0.53574893  0.17576839  0.47704465    -0.71500
O2509       O  0.53370822  0.16716899  0.03731328    -0.71400
O2510       O  0.97582953  0.17546061  0.47608741    -0.71400
O2511       O  0.97126506  0.22305476  0.48469020    -0.71300
O2512       O  0.53316237  0.21541147  0.04287221    -0.71400
O2513       O  0.53167614  0.22386682  0.48264164    -0.71300
O2514       O  0.97466340  0.21203782  0.04417008    -0.71500
V2515       V  0.50511540  0.17168181  0.00628186     1.35200
V2516       V  0.50208189  0.21760507  0.01355925     1.35200
C2517       C  0.96490543  0.18600545  0.04961379     0.77900
C2518       C  0.54386636  0.20185531  0.46977215     0.78000
C2519       C  0.54397024  0.19005698  0.04996731     0.77900
C2520       C  0.96360498  0.20031013  0.46999685     0.77800
O2521       O  0.83837012  0.48220985  0.46569331    -0.71300
O2522       O  0.83660789  0.02631815  0.03913975    -0.71500
O2523       O  0.83789632  0.46969983  0.02495511    -0.71400
O2524       O  0.83634577  0.04093109  0.48081411    -0.71400
O2525       O  0.78855576  0.03672445  0.47361820    -0.71300
O2526       O  0.78979637  0.47330015  0.03031607    -0.71400
O2527       O  0.78868402  0.03277605  0.03461932    -0.71300
O2528       O  0.79048301  0.47596506  0.46953757    -0.71500
V2529       V  0.83599377  0.00497695  0.00285526     1.35200
V2530       V  0.78965132  0.00466256  0.00274057     1.35200
C2531       C  0.81469809  0.47032817  0.45612930     0.77900
C2532       C  0.81270327  0.03774509  0.04874119     0.78000
C2533       C  0.81415053  0.46026795  0.03683336     0.77900
C2534       C  0.81272434  0.05028691  0.46818186     0.77800
O2535       O  0.97811968  0.34423657  0.47239202    -0.71300
O2536       O  0.53228298  0.33279320  0.03551699    -0.71500
O2537       O  0.53647458  0.34221289  0.47656587    -0.71400
O2538       O  0.97354207  0.33288985  0.02999080    -0.71400
O2539       O  0.97718217  0.28455037  0.02598736    -0.71300
O2540       O  0.53350922  0.29522035  0.46521024    -0.71400
O2541       O  0.53764622  0.28563383  0.02539856    -0.71300
O2542       O  0.97414422  0.29604710  0.46807260    -0.71500
V2543       V  0.50559092  0.33660988  0.00300286     1.35200
V2544       V  0.50684436  0.29061497  0.99588609     1.35200
C2545       C  0.96628764  0.32212841  0.45971528     0.77900
C2546       C  0.54432286  0.30782611  0.04142402     0.78000
C2547       C  0.54549352  0.32051007  0.46101366     0.77900
C2548       C  0.96504054  0.30706894  0.03784999     0.77800
C2549       C  0.82417601  0.09910296  0.12068454    -0.05000
C2550       C  0.83830718  0.07100835  0.12152112    -0.32400
C2551       C  0.83334131  0.05010622  0.09910406     0.36800
C2552       C  0.81363397  0.05694132  0.07531698    -0.05300
C2553       C  0.79786620  0.08412233  0.07533936    -0.32300
C2554       C  0.80325209  0.10539407  0.09760880     0.36800
H2555       H  0.85449101  0.06565199  0.13882162     0.17100
O2556       O  0.84813953  0.02311957  0.10041438    -0.59800
H2557       H  0.78301301  0.08982266  0.05686129     0.17100
O2558       O  0.79048100  0.13325310  0.09470358    -0.59900
H2559       H  0.76869967  0.13011557  0.09699720     0.44100
H2560       H  0.86899569  0.02756431  0.09456197     0.44100
C2561       C  0.89687428  0.16850859  0.11564141    -0.05000
C2562       C  0.89710460  0.15326076  0.08832673    -0.32400
C2563       C  0.91887993  0.15912367  0.06667445     0.36800
C2564       C  0.94106733  0.18065821  0.07197153    -0.05300
C2565       C  0.94067474  0.19633780  0.09909008    -0.32300
C2566       C  0.91918501  0.18995329  0.12111599     0.36800
H2567       H  0.88017662  0.13671659  0.08367820     0.17100
O2568       O  0.91812602  0.14376035  0.04024274    -0.59800
H2569       H  0.95773319  0.21275719  0.10366813     0.17100
O2570       O  0.92081502  0.20408775  0.14818096    -0.59900
H2571       H  0.93210136  0.19014492  0.16156803     0.44100
H2572       H  0.90681307  0.15685030  0.02604246     0.44100
C2573       C  0.89515425  0.10359236  0.19367666    -0.05000
C2574       C  0.92493600  0.11263238  0.19597330    -0.32400
C2575       C  0.94778318  0.09137269  0.19988579     0.36800
C2576       C  0.94078731  0.06078598  0.20199753    -0.05300
C2577       C  0.91089814  0.05193222  0.20166517    -0.32300
C2578       C  0.88801691  0.07315001  0.19752586     0.36800
H2579       H  0.93063470  0.13596648  0.19261110     0.17100
O2580       O  0.97694672  0.10048728  0.20020374    -0.59800
H2581       H  0.90539193  0.02836012  0.20270906     0.17100
O2582       O  0.85905355  0.06375984  0.19456846    -0.59900
H2583       H  0.85458051  0.05205719  0.21305697     0.44100
H2584       H  0.98187789  0.10482207  0.17892148     0.44100
C2585       C  0.72154053  0.14038224  0.15970089    -0.05000
C2586       C  0.73673073  0.16720540  0.15427633    -0.32400
C2587       C  0.76788632  0.16787443  0.15375155     0.36800
C2588       C  0.78436011  0.14136377  0.15877651    -0.05300
C2589       C  0.76923940  0.11462347  0.16509204    -0.32300
C2590       C  0.73796918  0.11396116  0.16550279     0.36800
H2591       H  0.72439189  0.18772045  0.15004400     0.17100
O2592       O  0.78200937  0.19417999  0.14665295    -0.59800
H2593       H  0.78172005  0.09427247  0.16992776     0.17100
O2594       O  0.72369429  0.08789993  0.17316841    -0.59900
H2595       H  0.72816865  0.07374942  0.15680820     0.44100
H2596       H  0.77975745  0.20695074  0.16454229     0.44100
C2597       C  0.56850777  0.18663340  0.07185192    -0.05000
C2598       C  0.59093078  0.16547128  0.06623865    -0.32400
C2599       C  0.61324991  0.15941212  0.08741768     0.36800
C2600       C  0.61289291  0.17373863  0.11537559    -0.05300
C2601       C  0.59091432  0.19564527  0.12059536    -0.32300
C2602       C  0.56915249  0.20257339  0.09882895     0.36800
H2603       H  0.59106046  0.15341041  0.04530106     0.17100
O2604       O  0.63497848  0.13887126  0.08072811    -0.59800
H2605       H  0.58944391  0.20631680  0.14203358     0.17100
O2606       O  0.54782312  0.22380935  0.10476562    -0.59900
H2607       H  0.53163964  0.21287948  0.11524437     0.44100
H2608       H  0.65211701  0.15087093  0.07351307     0.44100
C2609       C  0.68989655  0.05912856  0.07497920    -0.05000
C2610       C  0.67294729  0.05082818  0.10006839    -0.32400
C2611       C  0.66824405  0.07088448  0.12345898     0.36800
C2612       C  0.68030063  0.09986806  0.12185767    -0.05300
C2613       C  0.69857310  0.10770450  0.09750701    -0.32300
C2614       C  0.70337050  0.08754163  0.07409461     0.36800
H2615       H  0.66290026  0.02885272  0.10130917     0.17100
O2616       O  0.65212750  0.06191257  0.14806828    -0.59800
H2617       H  0.70769231  0.13005053  0.09579016     0.17100
O2618       O  0.71968131  0.09647143  0.04963334    -0.59900
H2619       H  0.70509148  0.10629341  0.03583185     0.44100
H2620       H  0.63111706  0.06073975  0.14110121     0.44100
C2621       C  0.56491953  0.06216924  0.20149493    -0.05000
C2622       C  0.55732982  0.08893889  0.18659232    -0.32400
C2623       C  0.57844627  0.11124117  0.18207563     0.36800
C2624       C  0.60772792  0.10705792  0.19265439    -0.05300
C2625       C  0.61495253  0.08128072  0.20967655    -0.32300
C2626       C  0.59361977  0.05869797  0.21407964     0.36800
H2627       H  0.53533867  0.09186230  0.17681169     0.17100
O2628       O  0.57059125  0.13672238  0.16633612    -0.59800
H2629       H  0.63760368  0.07772928  0.21761378     0.17100
O2630       O  0.60165794  0.03256877  0.22853189    -0.59900
H2631       H  0.60971593  0.01949593  0.21264193     0.44100
H2632       H  0.56869017  0.13054738  0.14511959     0.44100
C2633       C  0.85462334  0.27627674  0.14598499    -0.05000
C2634       C  0.85305479  0.25869893  0.12005030    -0.32400
C2635       C  0.85348356  0.22727902  0.12187986     0.36800
C2636       C  0.85519708  0.21290036  0.15014663    -0.05300
C2637       C  0.85404707  0.23042170  0.17587086    -0.32300
C2638       C  0.85346533  0.26156179  0.17409532     0.36800
H2639       H  0.85035087  0.26914102  0.09829589     0.17100
O2640       O  0.84990097  0.21094792  0.09625546    -0.59800
H2641       H  0.85325931  0.22009637  0.19778239     0.17100
O2642       O  0.85217580  0.27717595  0.20025149    -0.59900
H2643       H  0.83190340  0.27364453  0.20838486     0.44100
H2644       H  0.86712327  0.21604760  0.08328252     0.44100
C2645       C  0.94185128  0.30396267  0.06079429    -0.05000
C2646       C  0.94928624  0.30912983  0.09084078    -0.32400
C2647       C  0.92692259  0.31338511  0.11225504     0.36800
C2648       C  0.89671632  0.31246690  0.10367318    -0.05300
C2649       C  0.88939907  0.30576173  0.07383520    -0.32300
C2650       C  0.91176882  0.30104932  0.05252866     0.36800
H2651       H  0.97244065  0.31156138  0.09736745     0.17100
O2652       O  0.93472263  0.32014389  0.14117443    -0.59800
H2653       H  0.86634082  0.30564386  0.06661366     0.17100
O2654       O  0.90400940  0.29618056  0.02320987    -0.59900
H2655       H  0.90236166  0.27414655  0.02159657     0.44100
H2656       H  0.94100092  0.34138347  0.14044741     0.44100
C2657       C  0.82653838  0.38799568  0.09927603    -0.05000
C2658       C  0.81071775  0.41363720  0.10808280    -0.32400
C2659       C  0.80507339  0.43699568  0.08745676     0.36800
C2660       C  0.81541443  0.43472568  0.05777893    -0.05300
C2661       C  0.83000239  0.40864542  0.04876889    -0.32300
C2662       C  0.83525002  0.38527604  0.06916672     0.36800
H2663       H  0.80430599  0.41626669  0.13131396     0.17100
O2664       O  0.79214223  0.46297586  0.09722431    -0.59800
H2665       H  0.83790047  0.40664664  0.02592345     0.17100
O2666       O  0.84958253  0.36007939  0.05956088    -0.59900
H2667       H  0.83346160  0.34699297  0.05206673     0.44100
H2668       H  0.77122964  0.46230829  0.08998647     0.44100
C2669       C  0.94301888  0.43421693  0.18032775    -0.05000
C2670       C  0.92128534  0.43970017  0.15818531    -0.32400
C2671       C  0.89973362  0.41825029  0.15154702     0.36800
C2672       C  0.89988171  0.39042498  0.16684313    -0.05300
C2673       C  0.92182189  0.38492601  0.18890767    -0.32300
C2674       C  0.94296796  0.40673965  0.19605194     0.36800
H2675       H  0.92078907  0.46092000  0.14612385     0.17100
O2676       O  0.87787242  0.42523370  0.13093259    -0.59800
H2677       H  0.92318425  0.36343204  0.20012063     0.17100
O2678       O  0.96452262  0.40032747  0.21713955    -0.59900
H2679       H  0.95452917  0.40277848  0.23667990     0.44100
H2680       H  0.88802703  0.42602469  0.11120989     0.44100
C2681       C  0.65315972  0.27675054  0.14966474    -0.05000
C2682       C  0.63305471  0.26280894  0.16921909    -0.32400
C2683       C  0.63312753  0.23159981  0.17276857     0.36800
C2684       C  0.65195586  0.21406381  0.15486187    -0.05300
C2685       C  0.67213938  0.22800840  0.13533866    -0.32300
C2686       C  0.67353197  0.25925988  0.13346492     0.36800
H2687       H  0.61755576  0.27616894  0.18202910     0.17100
O2688       O  0.61531266  0.21826052  0.19406494    -0.59800
H2689       H  0.68701969  0.21464802  0.12181499     0.17100
O2690       O  0.69442235  0.27249809  0.11531891    -0.59900
H2691       H  0.71166419  0.27654638  0.12866117     0.44100
H2692       H  0.59471557  0.22568340  0.19025295     0.44100
C2693       C  0.72390704  0.34990678  0.14265244    -0.05000
C2694       C  0.73967728  0.35643300  0.16895576    -0.32400
C2695       C  0.77088627  0.35760298  0.16897553     0.36800
C2696       C  0.78677752  0.35204838  0.14243438    -0.05300
C2697       C  0.77098252  0.34554104  0.11609766    -0.32300
C2698       C  0.73973940  0.34456164  0.11600449     0.36800
H2699       H  0.72770129  0.36101472  0.18948331     0.17100
O2700       O  0.78559930  0.36527765  0.19474482    -0.59800
H2701       H  0.78293859  0.34050497  0.09568098     0.17100
O2702       O  0.72493465  0.33673083  0.09028386    -0.59900
H2703       H  0.72890747  0.35304099  0.07554428     0.44100
H2704       H  0.78458768  0.34736577  0.20807018     0.44100
C2705       C  0.61070650  0.31405344  0.10964347    -0.05000
C2706       C  0.58178438  0.32478554  0.11463637    -0.32400
C2707       C  0.55942958  0.32111570  0.09319655     0.36800
C2708       C  0.56557834  0.30567767  0.06658021    -0.05300
C2709       C  0.59378226  0.29256914  0.06265288    -0.32300
C2710       C  0.61658984  0.29726140  0.08374054     0.36800
H2711       H  0.57701962  0.33786972  0.13437888     0.17100
O2712       O  0.53181991  0.33360665  0.09794919    -0.59800
H2713       H  0.59886814  0.28099586  0.04206914     0.17100
O2714       O  0.64492137  0.28756587  0.07752410    -0.59900
H2715       H  0.65462464  0.30462855  0.06706949     0.44100
H2716       H  0.53406329  0.35521070  0.09314348     0.44100
C2717       C  0.68164661  0.38718041  0.10205941    -0.05000
C2718       C  0.66909420  0.38540912  0.07330145    -0.32400
C2719       C  0.67418026  0.40782022  0.05191926     0.36800
C2720       C  0.69220788  0.43238739  0.05915052    -0.05300
C2721       C  0.70581245  0.43360710  0.08746254    -0.32300
C2722       C  0.70021280  0.41145917  0.10912606     0.36800
H2723       H  0.65461951  0.36694382  0.06768807     0.17100
O2724       O  0.66052567  0.40610276  0.02438619    -0.59800
H2725       H  0.71893693  0.45287678  0.09352682     0.17100
O2726       O  0.71134803  0.41484313  0.13757517    -0.59900
H2727       H  0.69485267  0.42394872  0.14916091     0.44100
H2728       H  0.67547125  0.39657205  0.01116640     0.44100
C2729       C  0.57079492  0.43653601  0.18394632    -0.05000
C2730       C  0.57032908  0.40956836  0.20047590    -0.32400
C2731       C  0.59127146  0.38677102  0.19491781     0.36800
C2732       C  0.61360098  0.39125084  0.17313181    -0.05300
C2733       C  0.61469391  0.41873330  0.15758866    -0.32300
C2734       C  0.59340697  0.44110826  0.16258087     0.36800
H2735       H  0.55281432  0.40557769  0.21670725     0.17100
O2736       O  0.58831645  0.35952045  0.20910438    -0.59800
H2737       H  0.63188416  0.42269971  0.14099666     0.17100
O2738       O  0.59521085  0.46763888  0.14685455    -0.59900
H2739       H  0.58758043  0.46324780  0.12647071     0.44100
H2740       H  0.59166748  0.36332590  0.23073742     0.44100
C2741       C  0.65324249  0.36192406  0.27878820    -0.05000
C2742       C  0.65044667  0.33348131  0.26623359    -0.32400
C2743       C  0.65090347  0.32958398  0.23524307     0.36800
C2744       C  0.65434231  0.35440322  0.21598321    -0.05300
C2745       C  0.65864281  0.38276815  0.22834176    -0.32300
C2746       C  0.65819497  0.38669359  0.25955760     0.36800
H2747       H  0.64817969  0.31396191  0.28047200     0.17100
O2748       O  0.64670058  0.30154033  0.22401651    -0.59800
H2749       H  0.66263861  0.40189006  0.21373900     0.17100
O2750       O  0.66507324  0.41412104  0.27106393    -0.59900
H2751       H  0.65074435  0.42851927  0.26173148     0.44100
H2752       H  0.66606535  0.29099540  0.22684442     0.44100
C2753       C  0.61263524  0.33822106  0.39408877    -0.01200
C2754       C  0.59004714  0.31725954  0.38869377    -0.32400
C2755       C  0.56886472  0.31018943  0.41073718     0.36800
C2756       C  0.56924584  0.32505121  0.43840028    -0.05300
C2757       C  0.59195148  0.34575058  0.44396890    -0.32300
C2758       C  0.61367534  0.35211840  0.42229719     0.36800
H2759       H  0.58804122  0.30702447  0.36703699     0.17100
O2760       O  0.54678113  0.29014638  0.40426632    -0.59800
H2761       H  0.59295285  0.35701236  0.46532749     0.17100
O2762       O  0.63644196  0.37123247  0.42929349    -0.59900
H2763       H  0.62712719  0.39137494  0.43046491     0.44100
H2764       H  0.55580825  0.27024660  0.40819658     0.44100
C2765       C  0.61448954  0.40550182  0.31649690    -0.05000
C2766       C  0.62154854  0.43602456  0.31594158    -0.32400
C2767       C  0.59936746  0.45770889  0.31107521     0.36800
C2768       C  0.56957147  0.44895092  0.30727391    -0.05300
C2769       C  0.56259274  0.41841294  0.30641394    -0.32300
C2770       C  0.58492889  0.39667117  0.31098965     0.36800
H2771       H  0.64423518  0.44310012  0.31996273     0.17100
O2772       O  0.60664632  0.48744281  0.31217171    -0.59800
H2773       H  0.53960246  0.41148669  0.30381703     0.17100
O2774       O  0.57743727  0.36695932  0.31167123    -0.59900
H2775       H  0.57275366  0.36236281  0.33296098     0.44100
H2776       H  0.61202629  0.49307619  0.29129648     0.44100
C2777       C  0.68589778  0.40644568  0.38917150    -0.05000
C2778       C  0.67435956  0.43558191  0.38650414    -0.32400
C2779       C  0.67968463  0.45689551  0.40844291     0.36800
C2780       C  0.69680787  0.44941910  0.43398130    -0.05300
C2781       C  0.71002946  0.42082117  0.43606844    -0.32300
C2782       C  0.70451020  0.39925027  0.41391318     0.36800
H2783       H  0.65997889  0.44159425  0.36790209     0.17100
O2784       O  0.66680749  0.48470112  0.40536338    -0.59800
H2785       H  0.72292832  0.41455262  0.45581387     0.17100
O2786       O  0.71482839  0.37054927  0.41818516    -0.59900
H2787       H  0.73647259  0.37139200  0.41381246     0.44100
H2788       H  0.68286625  0.49781311  0.39755146     0.44100
C2789       C  0.64895097  0.15205834  0.29400615    -0.05000
C2790       C  0.67419849  0.14104329  0.27920591    -0.32400
C2791       C  0.67439261  0.13811576  0.24803747     0.36800
C2792       C  0.64887834  0.14583282  0.23119498    -0.05300
C2793       C  0.62321920  0.15603683  0.24591906    -0.32300
C2794       C  0.62312651  0.15914988  0.27721150     0.36800
H2795       H  0.69333200  0.13335630  0.29189791     0.17100
O2796       O  0.69913605  0.12641906  0.23433390    -0.59800
H2797       H  0.60347121  0.16214277  0.23307070     0.17100
O2798       O  0.59811853  0.16998489  0.29110733    -0.59900
H2799       H  0.58360332  0.15333108  0.29086121     0.44100
H2800       H  0.71300080  0.14346474  0.23180013     0.44100
C2801       C  0.64892055  0.29434742  0.35548382    -0.05000
C2802       C  0.66658970  0.27933087  0.37694837    -0.32400
C2803       C  0.66687896  0.24801967  0.37868504     0.36800
C2804       C  0.64924531  0.23134872  0.35891181    -0.05300
C2805       C  0.63151623  0.24623395  0.33744583    -0.32300
C2806       C  0.63100643  0.27764064  0.33580324     0.36800
H2807       H  0.68042838  0.29195108  0.39217024     0.17100
O2808       O  0.68453354  0.23384555  0.39972170    -0.59800
H2809       H  0.61783864  0.23349086  0.32216985     0.17100
O2810       O  0.61295529  0.29189485  0.31506593    -0.59900
H2811       H  0.59232977  0.28514102  0.31928701     0.44100
H2812       H  0.70353350  0.22960069  0.38922128     0.44100
C2813       C  0.60977766  0.11650241  0.33890898    -0.05000
C2814       C  0.58183130  0.11766488  0.35302690    -0.32400
C2815       C  0.55981217  0.09643750  0.34713058     0.36800
C2816       C  0.56512575  0.07375933  0.32625459    -0.05300
C2817       C  0.59290637  0.07233410  0.31199327    -0.32300
C2818       C  0.61546099  0.09305587  0.31863806     0.36800
H2819       H  0.57699623  0.13505907  0.36896345     0.17100
O2820       O  0.53275579  0.09854780  0.36125807    -0.59800
H2821       H  0.59758195  0.05433420  0.29661742     0.17100
O2822       O  0.64356198  0.08863716  0.30734117    -0.59900
H2823       H  0.64113862  0.08763426  0.28522989     0.44100
H2824       H  0.53611259  0.08994426  0.38163102     0.44100
C2825       C  0.69131276  0.07696643  0.45152599    -0.05000
C2826       C  0.70544342  0.07596453  0.42355516    -0.32400
C2827       C  0.70068726  0.09874412  0.40205948     0.36800
C2828       C  0.68189317  0.12312605  0.40878406    -0.05300
C2829       C  0.66906326  0.12469866  0.43738351    -0.32300
C2830       C  0.67339393  0.10179285  0.45856824     0.36800
H2831       H  0.71840897  0.05643317  0.41759899     0.17100
O2832       O  0.71189528  0.09541060  0.37370471    -0.59800
H2833       H  0.65440531  0.14306313  0.44291104     0.17100
O2834       O  0.65969481  0.10364466  0.48597578    -0.59900
H2835       H  0.63864506  0.09792961  0.48234850     0.44100
H2836       H  0.73378107  0.09790281  0.37577371     0.44100
C2837       C  0.61082322  0.19568779  0.40243927    -0.05000
C2838       C  0.61903279  0.19689116  0.43278964    -0.32400
C2839       C  0.59749637  0.20150840  0.45501290     0.36800
C2840       C  0.56734614  0.20555725  0.44694020    -0.05300
C2841       C  0.55951750  0.20698333  0.41641216    -0.32300
C2842       C  0.58114062  0.20225440  0.39413931     0.36800
H2843       H  0.64199033  0.19281463  0.43936810     0.17100
O2844       O  0.60587175  0.20055543  0.48465684    -0.59800
H2845       H  0.53636235  0.21006749  0.40989753     0.17100
O2846       O  0.57298655  0.20309405  0.36442577    -0.59900
H2847       H  0.56098207  0.18485658  0.36120607     0.44100
H2848       H  0.60374996  0.17931791  0.49099969     0.44100
C2849       C  0.85670059  0.14748604  0.22962796    -0.05000
C2850       C  0.86765055  0.17389162  0.24211659    -0.32400
C2851       C  0.86617940  0.17859049  0.27304504     0.36800
C2852       C  0.85573395  0.15569775  0.29209575    -0.05300
C2853       C  0.84510217  0.12910349  0.27975079    -0.32300
C2854       C  0.84465549  0.12532448  0.24864251     0.36800
H2855       H  0.87786108  0.19068563  0.22799043     0.17100
O2856       O  0.87571108  0.20523831  0.28452918    -0.59800
H2857       H  0.83657454  0.11154110  0.29428860     0.17100
O2858       O  0.83191018  0.10018990  0.23708523    -0.59900
H2859       H  0.81145326  0.10637873  0.23097287     0.44100
H2860       H  0.89740343  0.20261535  0.28821204     0.44100
C2861       C  0.72237761  0.16157135  0.36606282    -0.05000
C2862       C  0.73793862  0.15863601  0.33899024    -0.32400
C2863       C  0.76916537  0.15803265  0.33820313     0.36800
C2864       C  0.78574730  0.16130195  0.36477836    -0.05300
C2865       C  0.77040432  0.16532230  0.39188450    -0.32300
C2866       C  0.73902315  0.16562072  0.39267254     0.36800
H2867       H  0.72597850  0.15642057  0.31820173     0.17100
O2868       O  0.78324408  0.15262268  0.31152557    -0.59800
H2869       H  0.78278480  0.16870002  0.41247742     0.17100
O2870       O  0.72492475  0.17044993  0.41943266    -0.59900
H2871       H  0.72704983  0.19214621  0.42321396     0.44100
H2872       H  0.78102330  0.17134789  0.29950920     0.44100
C2873       C  0.82640410  0.12231962  0.40554788    -0.05000
C2874       C  0.80964267  0.09739254  0.39692391    -0.32400
C2875       C  0.80341529  0.07431639  0.41767477     0.36800
C2876       C  0.81415635  0.07610113  0.44732583    -0.05300
C2877       C  0.82992428  0.10153041  0.45610976    -0.32300
C2878       C  0.83607045  0.12450629  0.43548957     0.36800
H2879       H  0.80268092  0.09512243  0.37375794     0.17100
O2880       O  0.78954956  0.04884755  0.40812853    -0.59800
H2881       H  0.83828061  0.10317606  0.47888304     0.17100
O2882       O  0.85162418  0.14906254  0.44476574    -0.59900
H2883       H  0.87264039  0.14222914  0.44686009     0.44100
H2884       H  0.76889713  0.05506242  0.40294222     0.44100
C2885       C  0.93753266  0.07165323  0.32117105    -0.05000
C2886       C  0.93810983  0.09884266  0.30516801    -0.32400
C2887       C  0.91769694  0.12185695  0.31161218     0.36800
C2888       C  0.89558698  0.11733906  0.33371033    -0.05300
C2889       C  0.89449003  0.08966633  0.34885179    -0.32300
C2890       C  0.91523616  0.06702723  0.34289872     0.36800
H2891       H  0.95551082  0.10293231  0.28882971     0.17100
O2892       O  0.92142398  0.14943697  0.29838398    -0.59800
H2893       H  0.87772403  0.08571490  0.36588086     0.17100
O2894       O  0.91401260  0.04067626  0.35900154    -0.59900
H2895       H  0.89618642  0.03013575  0.35133880     0.44100
H2896       H  0.92035541  0.14611703  0.27640227     0.44100
C2897       C  0.94169421  0.20203341  0.44551572    -0.05000
C2898       C  0.95024860  0.19130010  0.41741284    -0.32400
C2899       C  0.92905040  0.18666149  0.39500956     0.36800
C2900       C  0.89887861  0.19302021  0.40048214    -0.05300
C2901       C  0.89039793  0.20542985  0.42793545    -0.32300
C2902       C  0.91169246  0.20972689  0.45071721     0.36800
H2903       H  0.97328414  0.18503053  0.41338881     0.17100
O2904       O  0.93770644  0.17390848  0.36858582    -0.59800
H2905       H  0.86702198  0.20967739  0.43245503     0.17100
O2906       O  0.90273597  0.21795483  0.47890915    -0.59900
H2907       H  0.89042868  0.23631098  0.47623256     0.44100
H2908       H  0.94075735  0.19092122  0.35444768     0.44100
C2909       C  0.86199746  0.35494154  0.21209258    -0.05000
C2910       C  0.84630647  0.37857794  0.22526928    -0.32400
C2911       C  0.84526817  0.38124746  0.25656120     0.36800
C2912       C  0.86032456  0.36031264  0.27506392    -0.05300
C2913       C  0.87656975  0.33708068  0.26193454    -0.32300
C2914       C  0.87793167  0.33459073  0.23060698     0.36800
H2915       H  0.83450419  0.39474845  0.21124068     0.17100
O2916       O  0.82926235  0.40420450  0.26889844    -0.59800
H2917       H  0.88860995  0.32113554  0.27598911     0.17100
O2918       O  0.89508675  0.31245598  0.21819774    -0.59900
H2919       H  0.91595124  0.31663230  0.22425737     0.44100
H2920       H  0.80913923  0.39584279  0.27262425     0.44100
C2921       C  0.78769607  0.36610728  0.34605676    -0.05000
C2922       C  0.77255953  0.33879796  0.34819327    -0.32400
C2923       C  0.74144810  0.33778021  0.35019818     0.36800
C2924       C  0.72465214  0.36447439  0.34945522    -0.05300
C2925       C  0.73954560  0.39176451  0.34516210    -0.32300
C2926       C  0.77074054  0.39271847  0.34325315     0.36800
H2927       H  0.78472641  0.31798671  0.34871027     0.17100
O2928       O  0.72782711  0.31065214  0.35446936    -0.59800
H2929       H  0.72693949  0.41242518  0.34284728     0.17100
O2930       O  0.78429262  0.41968862  0.33800288    -0.59900
H2931       H  0.78432789  0.42227573  0.31586668     0.44100
H2932       H  0.73028803  0.29985356  0.33532826     0.44100
C2933       C  0.85974459  0.23240969  0.36009497    -0.05000
C2934       C  0.88589478  0.24684122  0.35058335    -0.32400
C2935       C  0.88693984  0.27818737  0.34815555     0.36800
C2936       C  0.86177789  0.29544098  0.35576031    -0.05300
C2937       C  0.83633551  0.28094983  0.36678614    -0.32300
C2938       C  0.83492166  0.24970274  0.36834468     0.36800
H2939       H  0.90526556  0.23375530  0.34437784     0.17100
O2940       O  0.91256515  0.29174829  0.33842478    -0.59800
H2941       H  0.81771838  0.29388385  0.37484955     0.17100
O2942       O  0.80956716  0.23626610  0.37898828    -0.59900
H2943       H  0.79599173  0.23506839  0.36142214     0.44100
H2944       H  0.91159869  0.29105464  0.31622305     0.44100
C2945       C  0.81608264  0.45029388  0.43008141    -0.05000
C2946       C  0.80265269  0.42196763  0.43107085    -0.32400
C2947       C  0.80874879  0.40080412  0.40878172     0.36800
C2948       C  0.82765837  0.40831266  0.38457583    -0.05300
C2949       C  0.83964699  0.43721089  0.38307341    -0.32300
C2950       C  0.83399356  0.45805042  0.40539957     0.36800
H2951       H  0.78906035  0.41556544  0.45012315     0.17100
O2952       O  0.79769825  0.37240426  0.41196082    -0.59800
H2953       H  0.85439485  0.44346388  0.36502363     0.17100
O2954       O  0.84701315  0.48571121  0.40342582    -0.59900
H2955       H  0.83184399  0.49882406  0.39358348     0.44100
H2956       H  0.81436922  0.36029179  0.42052601     0.44100
C2957       C  0.90158522  0.34051766  0.39005247    -0.05000
C2958       C  0.89581619  0.31862725  0.41226920    -0.32400
C2959       C  0.91714613  0.31152187  0.43442752     0.36800
C2960       C  0.94423593  0.32718821  0.43547172    -0.05300
C2961       C  0.94995754  0.34914551  0.41363759    -0.32300
C2962       C  0.92914259  0.35570224  0.39096484     0.36800
H2963       H  0.87452851  0.30736304  0.41293562     0.17100
O2964       O  0.91070430  0.29024169  0.45576801    -0.59800
H2965       H  0.97089759  0.36115534  0.41396491     0.17100
O2966       O  0.93654496  0.37621177  0.36913175    -0.59900
H2967       H  0.93809041  0.39569844  0.37940407     0.44100
H2968       H  0.92091906  0.27189400  0.44881083     0.44100
C2969       C  0.89697812  0.40508331  0.31001110    -0.05000
C2970       C  0.88907370  0.43540825  0.31077909    -0.32400
C2971       C  0.91056572  0.45756864  0.30634087     0.36800
C2972       C  0.94034219  0.44939224  0.30088519    -0.05300
C2973       C  0.94772499  0.41912222  0.29720035    -0.32300
C2974       C  0.92604813  0.39687932  0.30145727     0.36800
H2975       H  0.86645830  0.44189884  0.31619307     0.17100
O2976       O  0.90288582  0.48705057  0.30995771    -0.59800
H2977       H  0.97061578  0.41265003  0.29277177     0.17100
O2978       O  0.93358203  0.36725120  0.29840726    -0.59900
H2979       H  0.94832534  0.36269116  0.31448028     0.44100
H2980       H  0.89138142  0.49272446  0.29166411     0.44100
C2981       C  0.84005999  0.34394891  0.82849902     0.46000
H2982       H  0.82611896  0.32806093  0.81566810    -0.03100
C2983       C  0.87303915  0.38112802  0.85781722     0.46000
H2984       H  0.88675459  0.39730841  0.87033158    -0.03100
C2985       C  0.85952671  0.36390944  0.80822480    -0.16800
C2986       C  0.82184927  0.36604793  0.84762330    -0.16500
C2987       C  0.86215555  0.32848366  0.85047429    -0.16900
C2988       C  0.87663188  0.38364070  0.82371425    -0.16900
C2989       C  0.83948795  0.38534917  0.86366820    -0.16400
C2990       C  0.88010187  0.34816780  0.86577801    -0.16800
C2991       C  0.87009952  0.14824254  0.87715998     0.46000
H2992       H  0.88441376  0.13430172  0.89230305    -0.03100
C2993       C  0.83690699  0.18116600  0.84183987     0.46000
H2994       H  0.82301317  0.19546035  0.82667212    -0.03100
C2995       C  0.83649758  0.14450136  0.88284636    -0.16800
C2996       C  0.87590459  0.18182046  0.87988094    -0.16500
C2997       C  0.87466037  0.14139266  0.84383852    -0.16900
C2998       C  0.81869996  0.16166558  0.86406112    -0.16900
C2999       C  0.85842720  0.19932322  0.86146729    -0.16400
C3000       C  0.85712999  0.15885573  0.82518126    -0.16800
C3001       C  0.66968857  0.18055153  0.84223482     0.46000
H3002       H  0.68343512  0.19384623  0.82629435    -0.03100
C3003       C  0.63670683  0.15024691  0.87933197     0.46000
H3004       H  0.62267564  0.13731973  0.89532382    -0.03100
C3005       C  0.64907679  0.15771666  0.82681923    -0.16800
C3006       C  0.68820535  0.16219923  0.86537354    -0.16500
C3007       C  0.64870558  0.20011201  0.86119413    -0.16900
C3008       C  0.63158869  0.14158558  0.84642896    -0.16900
C3009       C  0.67045144  0.14589031  0.88470840    -0.16400
C3010       C  0.63135903  0.18411804  0.88072408    -0.16800
C3011       C  0.64149851  0.38184006  0.86189785     0.46000
H3012       H  0.62760775  0.39774160  0.87485551    -0.03100
C3013       C  0.67330532  0.34458829  0.83112585     0.46000
H3014       H  0.68678701  0.32865769  0.81782283    -0.03100
C3015       C  0.67520251  0.38533627  0.86702972    -0.16800
C3016       C  0.63487197  0.34886713  0.86946097    -0.16500
C3017       C  0.63699799  0.38516786  0.82781170    -0.16900
C3018       C  0.69220717  0.36563422  0.85075156    -0.16900
C3019       C  0.65122878  0.32917710  0.85270928    -0.16400
C3020       C  0.65401423  0.36569517  0.81143263    -0.16800
C3021       C  0.67223448  0.32942485  0.66619300     0.46000
H3022       H  0.68705324  0.31615138  0.68143032    -0.03100
C3023       C  0.63776725  0.36046691  0.63041937     0.46000
H3024       H  0.62306697  0.37364389  0.61496173    -0.03100
C3025       C  0.65161006  0.35166264  0.68255248    -0.16800
C3026       C  0.68936962  0.34876345  0.64337645    -0.16500
C3027       C  0.65136837  0.31012633  0.64707863    -0.16900
C3028       C  0.63334127  0.36808418  0.66360284    -0.16900
C3029       C  0.67110944  0.36523551  0.62463830    -0.16400
C3030       C  0.63300526  0.32655137  0.62844970    -0.16800
C3031       C  0.86947028  0.35881388  0.62666603     0.46000
H3032       H  0.88396908  0.37072493  0.61034527    -0.03100
C3033       C  0.83637424  0.33018421  0.66489020     0.46000
H3034       H  0.82183914  0.31834256  0.68114752    -0.03100
C3035       C  0.83600630  0.36481679  0.62209827    -0.16800
C3036       C  0.87299333  0.32469803  0.62532178    -0.16500
C3037       C  0.87599147  0.36720314  0.65932229    -0.16900
C3038       C  0.81844187  0.34993424  0.64252874    -0.16900
C3039       C  0.85521899  0.30916859  0.64516333    -0.16400
C3040       C  0.85895374  0.35152348  0.67958271    -0.16800
C3041       C  0.63765631  0.12941250  0.64779077     0.46000
H3042       H  0.62305651  0.11450230  0.63452487    -0.03100
C3043       C  0.67147634  0.16435244  0.67898615     0.46000
H3044       H  0.68586975  0.17937889  0.69236660    -0.03100
C3045       C  0.67103097  0.12270316  0.64408773    -0.16800
C3046       C  0.63377532  0.16269197  0.63947119    -0.16500
C3047       C  0.63198389  0.12743288  0.68166480    -0.16900
C3048       C  0.68893466  0.14137842  0.66034941    -0.16900
C3049       C  0.65128205  0.18118591  0.65637816    -0.16400
C3050       C  0.64999106  0.14557700  0.69816266    -0.16800
C3051       C  0.83557559  0.16313327  0.67745051     0.46000
H3052       H  0.82135064  0.17842787  0.69074952    -0.03100
C3053       C  0.86841446  0.12655124  0.64701369     0.46000
H3054       H  0.88271576  0.11090846  0.63417336    -0.03100
C3055       C  0.85601993  0.14329433  0.69708394    -0.16800
C3056       C  0.81749421  0.14129990  0.65840561    -0.16500
C3057       C  0.85630380  0.17912653  0.65503004    -0.16900
C3058       C  0.87314665  0.12377427  0.68103545    -0.16900
C3059       C  0.83479900  0.12202353  0.64210754    -0.16400
C3060       C  0.87405750  0.15968211  0.63914838    -0.16800
O3061       O  0.53563906  0.03160292  0.67537008    -0.71300
O3062       O  0.97385272  0.47350742  0.66410803    -0.71500
O3063       O  0.97605220  0.03192744  0.67323211    -0.71400
O3064       O  0.53418861  0.47372024  0.66583211    -0.71400
O3065       O  0.53410427  0.46473376  0.71384303    -0.71300
O3066       O  0.97511308  0.02252253  0.72120152    -0.71400
O3067       O  0.97414682  0.46291692  0.71181622    -0.71300
O3068       O  0.53542568  0.02332872  0.72354990    -0.71500
V3069       V  0.50618551  0.00220466  0.67076038     1.35200
V3070       V  0.50608569  0.99316730  0.71684391     1.35200
C3071       C  0.54508550  0.03799967  0.70117188     0.77900
C3072       C  0.96386150  0.45816952  0.68579983     0.78000
C3073       C  0.96544346  0.03737878  0.69878624     0.77900
C3074       C  0.54479399  0.45949268  0.68818560     0.77800
O3075       O  0.53333412  0.47709775  0.83426884    -0.71300
O3076       O  0.97196323  0.03426775  0.84031552    -0.71500
O3077       O  0.97402085  0.47686340  0.83125678    -0.71400
O3078       O  0.53167867  0.03671187  0.84143977    -0.71400
O3079       O  0.53522601  0.04427886  0.79332701    -0.71300
O3080       O  0.97462868  0.48683163  0.78336282    -0.71400
O3081       O  0.97507712  0.04599576  0.79299215    -0.71300
O3082       O  0.53499610  0.48581621  0.78618935    -0.71500
V3083       V  0.50379083  0.00583040  0.83385484     1.35200
V3084       V  0.50486481  0.01501217  0.78784098     1.35200
C3085       C  0.54441351  0.47137966  0.80895025     0.77900
C3086       C  0.96277436  0.04979642  0.81822873     0.78000
C3087       C  0.96418836  0.47200173  0.80521755     0.77900
C3088       C  0.54322892  0.05084617  0.81969755     0.77800
O3089       O  0.71931741  0.47685927  0.97411023    -0.71300
O3090       O  0.71635318  0.03211017  0.53725182    -0.71500
O3091       O  0.71928269  0.47294914  0.53455225    -0.71400
O3092       O  0.71587945  0.03734703  0.97515256    -0.71400
O3093       O  0.66790293  0.04102498  0.98136295    -0.71300
O3094       O  0.67166296  0.46801398  0.52670584    -0.71400
O3095       O  0.66854147  0.02559507  0.54158613    -0.71300
O3096       O  0.67142842  0.48238416  0.96817192    -0.71500
V3097       V  0.71579126  0.00419074  0.50520973     1.35200
V3098       V  0.66943646  0.00435659  0.50491092     1.35200
C3099       C  0.69577634  0.47090940  0.95960757     0.77900
C3100       C  0.69230451  0.03743283  0.55106854     0.78000
C3101       C  0.69528507  0.45887533  0.53940340     0.77900
C3102       C  0.69153482  0.05089880  0.96965818     0.77800
O3103       O  0.97499375  0.16545399  0.53538935    -0.71300
O3104       O  0.53641880  0.17725336  0.97837502    -0.71500
O3105       O  0.53419611  0.16533929  0.53605492    -0.71400
O3106       O  0.97663406  0.17413684  0.97579408    -0.71400
O3107       O  0.97230614  0.22177198  0.98427719    -0.71300
O3108       O  0.53350050  0.21345404  0.54256647    -0.71400
O3109       O  0.53103440  0.22535467  0.98288879    -0.71300
O3110       O  0.97352365  0.21305012  0.54458516    -0.71500
V3111       V  0.50500430  0.17034343  0.50558913     1.35200
V3112       V  0.50258160  0.21627079  0.51320655     1.35200
C3113       C  0.96397621  0.18691067  0.54993199     0.77900
C3114       C  0.54393483  0.20339686  0.97061751     0.78000
C3115       C  0.54429578  0.18799923  0.54924351     0.77900
C3116       C  0.96443983  0.19899982  0.96972020     0.77800
O3117       O  0.83849653  0.48320334  0.96629451    -0.71300
O3118       O  0.83593127  0.02648461  0.53935002    -0.71500
O3119       O  0.83797484  0.46853725  0.52437461    -0.71400
O3120       O  0.83638959  0.04142789  0.98082005    -0.71400
O3121       O  0.78861835  0.03673295  0.97388178    -0.71300
O3122       O  0.79004616  0.47319135  0.53018230    -0.71400
O3123       O  0.78808779  0.03328170  0.53442653    -0.71300
O3124       O  0.79072845  0.47591134  0.96966532    -0.71500
V3125       V  0.83539297  0.00473473  0.50330709     1.35200
V3126       V  0.78903348  0.00489850  0.50273154     1.35200
C3127       C  0.81521373  0.47079988  0.95650662     0.77900
C3128       C  0.81205646  0.03818687  0.54867990     0.78000
C3129       C  0.81413751  0.45947654  0.53639569     0.77900
C3130       C  0.81259478  0.05066688  0.96846241     0.77800
O3131       O  0.97995419  0.34324202  0.97070181    -0.71300
O3132       O  0.52988503  0.33277343  0.53572536    -0.71500
O3133       O  0.53804970  0.34272463  0.97643554    -0.71400
O3134       O  0.97253542  0.33360960  0.53174058    -0.71400
O3135       O  0.97612920  0.28526510  0.52764672    -0.71300
O3136       O  0.53609427  0.29560462  0.96527897    -0.71400
O3137       O  0.53530340  0.28566334  0.52546148    -0.71300
O3138       O  0.97668742  0.29501605  0.96621921    -0.71500
V3139       V  0.50360809  0.33675425  0.50282237     1.35200
V3140       V  0.50434750  0.29073756  0.49600387     1.35200
C3141       C  0.96880042  0.32102393  0.95762818     0.77900
C3142       C  0.54190407  0.30779140  0.54165392     0.78000
C3143       C  0.54744147  0.32116401  0.96093993     0.77900
C3144       C  0.96429054  0.30776241  0.53980159     0.77800
C3145       C  0.82373734  0.09914294  0.62092374    -0.05000
C3146       C  0.83652031  0.07045773  0.62243744    -0.32400
C3147       C  0.83149484  0.04979549  0.59975713     0.36800
C3148       C  0.81297292  0.05746435  0.57522053    -0.05300
C3149       C  0.79842135  0.08531554  0.57465077    -0.32300
C3150       C  0.80386820  0.10630566  0.59716812     0.36800
H3151       H  0.85156343  0.06445271  0.64066186     0.17100
O3152       O  0.84503931  0.02219466  0.60156382    -0.59800
H3153       H  0.78450073  0.09163755  0.55564105     0.17100
O3154       O  0.79213159  0.13459795  0.59406947    -0.59900
H3155       H  0.77022732  0.13222564  0.59611665     0.44100
H3156       H  0.86606297  0.02558647  0.59560081     0.44100
C3157       C  0.89676616  0.16816172  0.61631400    -0.05000
C3158       C  0.89656431  0.15351372  0.58866904    -0.32400
C3159       C  0.91809514  0.15977828  0.56688370     0.36800
C3160       C  0.94034836  0.18120116  0.57236715    -0.05300
C3161       C  0.94046215  0.19615388  0.59989055    -0.32300
C3162       C  0.91929335  0.18927990  0.62205836     0.36800
H3163       H  0.87951544  0.13713205  0.58388592     0.17100
O3164       O  0.91713031  0.14483569  0.54021017    -0.59800
H3165       H  0.95770295  0.21232651  0.60465714     0.17100
O3166       O  0.92144908  0.20259276  0.64951332    -0.59900
H3167       H  0.93199809  0.18780646  0.66258270     0.44100
H3168       H  0.90509799  0.15781297  0.52651139     0.44100
C3169       C  0.89625524  0.10329868  0.69351532    -0.05000
C3170       C  0.92615013  0.11175770  0.69077246    -0.32400
C3171       C  0.94909531  0.09064006  0.69439236     0.36800
C3172       C  0.94235844  0.06072532  0.70163034    -0.05300
C3173       C  0.91257119  0.05256874  0.70624301    -0.32300
C3174       C  0.88943183  0.07359450  0.70183157     0.36800
H3175       H  0.93161730  0.13434780  0.68370271     0.17100
O3176       O  0.97801399  0.09912176  0.68945903    -0.59800
H3177       H  0.90709274  0.02940063  0.71097147     0.17100
O3178       O  0.86033058  0.06425366  0.70249567    -0.59900
H3179       H  0.85730109  0.05552018  0.72282811     0.44100
H3180       H  0.98061023  0.09842289  0.66738472     0.44100
C3181       C  0.72189015  0.14069143  0.66013542    -0.05000
C3182       C  0.73718202  0.16711474  0.65321867    -0.32400
C3183       C  0.76832438  0.16754336  0.65270494     0.36800
C3184       C  0.78457308  0.14119533  0.65909403    -0.05300
C3185       C  0.76936471  0.11487854  0.66675142    -0.32300
C3186       C  0.73812308  0.11447709  0.66733216     0.36800
H3187       H  0.72493424  0.18743265  0.64782506     0.17100
O3188       O  0.78267084  0.19335150  0.64432581    -0.59800
H3189       H  0.78176192  0.09472053  0.67258798     0.17100
O3190       O  0.72367032  0.08897572  0.67648199    -0.59900
H3191       H  0.72809786  0.07383926  0.66102309     0.44100
H3192       H  0.78168534  0.20647629  0.66206563     0.44100
C3193       C  0.56846966  0.18435802  0.57147409    -0.05000
C3194       C  0.59147057  0.16382877  0.56581334    -0.32400
C3195       C  0.61382734  0.15821739  0.58711295     0.36800
C3196       C  0.61290857  0.17238430  0.61512936    -0.05300
C3197       C  0.59010992  0.19331681  0.62054921    -0.32300
C3198       C  0.56827145  0.19976867  0.59876462     0.36800
H3199       H  0.59210736  0.15205009  0.54472531     0.17100
O3200       O  0.63619762  0.13834373  0.58049461    -0.59800
H3201       H  0.58812452  0.20358221  0.64214151     0.17100
O3202       O  0.54612174  0.22010341  0.60487559    -0.59900
H3203       H  0.53199900  0.20934964  0.61820755     0.44100
H3204       H  0.65224387  0.15066091  0.57146982     0.44100
C3205       C  0.69142149  0.05761461  0.57706887    -0.05000
C3206       C  0.67459443  0.04959882  0.60236150    -0.32400
C3207       C  0.66984391  0.07002601  0.62546474     0.36800
C3208       C  0.68138936  0.09918620  0.62316678    -0.05300
C3209       C  0.69980033  0.10661992  0.59879318    -0.32300
C3210       C  0.70497450  0.08598146  0.57588479     0.36800
H3211       H  0.66466712  0.02758793  0.60395928     0.17100
O3212       O  0.65424469  0.06124555  0.65047688    -0.59800
H3213       H  0.70880042  0.12898358  0.59666941     0.17100
O3214       O  0.72176881  0.09440389  0.55158338    -0.59900
H3215       H  0.70724048  0.10233101  0.53657568     0.44100
H3216       H  0.63304622  0.06042053  0.64405299     0.44100
C3217       C  0.56573432  0.06318707  0.70393710    -0.05000
C3218       C  0.55799703  0.08971386  0.68868066    -0.32400
C3219       C  0.57908582  0.11187683  0.68349116     0.36800
C3220       C  0.60845660  0.10782054  0.69381057    -0.05300
C3221       C  0.61580294  0.08244847  0.71138129    -0.32300
C3222       C  0.59451153  0.05995289  0.71640050     0.36800
H3223       H  0.53593177  0.09244761  0.67901173     0.17100
O3224       O  0.57112168  0.13703130  0.66728957    -0.59800
H3225       H  0.63851156  0.07907275  0.71922526     0.17100
O3226       O  0.60265663  0.03409509  0.73128172    -0.59900
H3227       H  0.61174301  0.02119427  0.71580867     0.44100
H3228       H  0.56909588  0.13040899  0.64622353     0.44100
C3229       C  0.85396436  0.27572795  0.64769496    -0.05000
C3230       C  0.85196389  0.25819767  0.62178879    -0.32400
C3231       C  0.85305653  0.22681453  0.62344816     0.36800
C3232       C  0.85552269  0.21231820  0.65158757    -0.05300
C3233       C  0.85474951  0.22971738  0.67747459    -0.32300
C3234       C  0.85362542  0.26092950  0.67579629     0.36800
H3235       H  0.84842306  0.26865079  0.60017534     0.17100
O3236       O  0.84947885  0.21058200  0.59776373    -0.59800
H3237       H  0.85474596  0.21919298  0.69937422     0.17100
O3238       O  0.85250634  0.27655184  0.70195444    -0.59900
H3239       H  0.83223151  0.27313649  0.71012099     0.44100
H3240       H  0.86658219  0.21593149  0.58472902     0.44100
C3241       C  0.94151850  0.30450356  0.56304656    -0.05000
C3242       C  0.94883818  0.31113696  0.59280229    -0.32400
C3243       C  0.92640775  0.31456771  0.61426045     0.36800
C3244       C  0.89628263  0.31188936  0.60582484    -0.05300
C3245       C  0.88918684  0.30398218  0.57627109    -0.32300
C3246       C  0.91167340  0.29943125  0.55513695     0.36800
H3247       H  0.97182693  0.31511720  0.59905471     0.17100
O3248       O  0.93393857  0.32232378  0.64299235    -0.59800
H3249       H  0.86616901  0.30315401  0.56896489     0.17100
O3250       O  0.90408811  0.29277701  0.52616118    -0.59900
H3251       H  0.90651325  0.27076501  0.52480472     0.44100
H3252       H  0.93914090  0.34384117  0.64179154     0.44100
C3253       C  0.82535391  0.38639209  0.59864952    -0.05000
C3254       C  0.80722524  0.41087078  0.60638436    -0.32400
C3255       C  0.80192716  0.43433089  0.58573099     0.36800
C3256       C  0.81507943  0.43351835  0.55708324    -0.05300
C3257       C  0.83200920  0.40851198  0.54902489    -0.32300
C3258       C  0.83684544  0.38496218  0.56935356     0.36800
H3259       H  0.79868732  0.41268311  0.62899233     0.17100
O3260       O  0.78644453  0.45914809  0.59479247    -0.59800
H3261       H  0.84208339  0.40750721  0.52699062     0.17100
O3262       O  0.85373485  0.36101719  0.56060652    -0.59900
H3263       H  0.83959429  0.34771989  0.55010323     0.44100
H3264       H  0.76674601  0.45784517  0.58476852     0.44100
C3265       C  0.94073527  0.43534697  0.68041829    -0.05000
C3266       C  0.91953216  0.44019720  0.65756748    -0.32400
C3267       C  0.89804555  0.41854213  0.65103419     0.36800
C3268       C  0.89781496  0.39110245  0.66707221    -0.05300
C3269       C  0.91925634  0.38628753  0.68975155    -0.32300
C3270       C  0.94011708  0.40832199  0.69690870     0.36800
H3271       H  0.91939053  0.46105272  0.64487710     0.17100
O3272       O  0.87663893  0.42494917  0.62975583    -0.59800
H3273       H  0.92053282  0.36510973  0.70150825     0.17100
O3274       O  0.96080834  0.40253913  0.71900727    -0.59900
H3275       H  0.95037699  0.40669378  0.73787548     0.44100
H3276       H  0.88722488  0.42515028  0.61025783     0.44100
C3277       C  0.65135496  0.27708992  0.64931509    -0.05000
C3278       C  0.63106690  0.26264758  0.66832192    -0.32400
C3279       C  0.63152878  0.23136278  0.67158595     0.36800
C3280       C  0.65107711  0.21422555  0.65400572    -0.05300
C3281       C  0.67141443  0.22868968  0.63504248    -0.32300
C3282       C  0.67229308  0.25998977  0.63339937     0.36800
H3283       H  0.61517528  0.27567116  0.68099360     0.17100
O3284       O  0.61359239  0.21757864  0.69250350    -0.59800
H3285       H  0.68687155  0.21569756  0.62181202     0.17100
O3286       O  0.69326862  0.27367687  0.61570413    -0.59900
H3287       H  0.71038521  0.27749782  0.62927846     0.44100
H3288       H  0.59307974  0.22541336  0.68908128     0.44100
C3289       C  0.72241579  0.34942077  0.64257084    -0.05000
C3290       C  0.73816631  0.35656101  0.66870299    -0.32400
C3291       C  0.76939631  0.35725326  0.66882530     0.36800
C3292       C  0.78532672  0.35072370  0.64253103    -0.05300
C3293       C  0.76955066  0.34336797  0.61641964    -0.32300
C3294       C  0.73827679  0.34273782  0.61626475     0.36800
H3295       H  0.72616621  0.36195441  0.68901012     0.17100
O3296       O  0.78410834  0.36544704  0.69442264    -0.59800
H3297       H  0.78154099  0.33751302  0.59624925     0.17100
O3298       O  0.72343108  0.33393784  0.59090302    -0.59900
H3299       H  0.72749638  0.34961660  0.57551984     0.44100
H3300       H  0.78321256  0.34774556  0.70803681     0.44100
C3301       C  0.60867699  0.31459152  0.60957065    -0.05000
C3302       C  0.57983854  0.32557027  0.61453413    -0.32400
C3303       C  0.55726105  0.32150415  0.59336033     0.36800
C3304       C  0.56316562  0.30564424  0.56691670    -0.05300
C3305       C  0.59123294  0.29215589  0.56318770    -0.32300
C3306       C  0.61418855  0.29701240  0.58410892     0.36800
H3307       H  0.57526547  0.33900717  0.63408108     0.17100
O3308       O  0.52962883  0.33390438  0.59823394    -0.59800
H3309       H  0.59611602  0.28007445  0.54285522     0.17100
O3310       O  0.64230468  0.28654029  0.57816759    -0.59900
H3311       H  0.65217481  0.30288339  0.56675316     0.44100
H3312       H  0.53198796  0.35566538  0.59435211     0.44100
C3313       C  0.68133863  0.38748238  0.60215943    -0.05000
C3314       C  0.67165150  0.38488100  0.57240875    -0.32400
C3315       C  0.67798936  0.40722263  0.55122507     0.36800
C3316       C  0.69390499  0.43281910  0.55979189    -0.05300
C3317       C  0.70440355  0.43505917  0.58934492    -0.32300
C3318       C  0.69804330  0.41265793  0.61060165     0.36800
H3319       H  0.65860250  0.36571297  0.56576974     0.17100
O3320       O  0.66749274  0.40444050  0.52244026    -0.59800
H3321       H  0.71563633  0.45514575  0.59647374     0.17100
O3322       O  0.70662932  0.41649084  0.63987135    -0.59900
H3323       H  0.68865394  0.42422667  0.65019023     0.44100
H3324       H  0.68456849  0.39646180  0.51086835     0.44100
C3325       C  0.56893688  0.43718244  0.68403110    -0.05000
C3326       C  0.56930697  0.41050773  0.70101732    -0.32400
C3327       C  0.59033244  0.38782649  0.69520607     0.36800
C3328       C  0.61198335  0.39210228  0.67263026    -0.05300
C3329       C  0.61218023  0.41930981  0.65652810    -0.32300
C3330       C  0.59083884  0.44157396  0.66186102     0.36800
H3331       H  0.55236773  0.40662027  0.71788167     0.17100
O3332       O  0.58798308  0.36079574  0.70993470    -0.59800
H3333       H  0.62877045  0.42319935  0.63931638     0.17100
O3334       O  0.59194249  0.46785069  0.64564050    -0.59900
H3335       H  0.58160437  0.46364028  0.62644709     0.44100
H3336       H  0.59102775  0.36511255  0.73151227     0.44100
C3337       C  0.65352401  0.36316679  0.77820756    -0.05000
C3338       C  0.64881634  0.33495482  0.76580105    -0.32400
C3339       C  0.64824771  0.33104451  0.73482279     0.36800
C3340       C  0.65308304  0.35551040  0.71545864    -0.05300
C3341       C  0.65934097  0.38359489  0.72763311    -0.32300
C3342       C  0.65961860  0.38758009  0.75887723     0.36800
H3343       H  0.64570224  0.31567199  0.78013115     0.17100
O3344       O  0.64141605  0.30349124  0.72369285    -0.59800
H3345       H  0.66425244  0.40237846  0.71288129     0.17100
O3346       O  0.66816042  0.41456697  0.77033130    -0.59900
H3347       H  0.65456774  0.42975932  0.76115524     0.44100
H3348       H  0.66008797  0.29156360  0.72545291     0.44100
C3349       C  0.61348887  0.34014800  0.89355003    -0.01200
C3350       C  0.58999411  0.32043152  0.88754957    -0.32400
C3351       C  0.56906682  0.31298775  0.90967812     0.36800
C3352       C  0.57079670  0.32617040  0.93812584    -0.05300
C3353       C  0.59427466  0.34583593  0.94422961    -0.32300
C3354       C  0.61562726  0.35266984  0.92232837     0.36800
H3355       H  0.58713941  0.31151665  0.86538970     0.17100
O3356       O  0.54582845  0.29449085  0.90261291    -0.59800
H3357       H  0.59611001  0.35593349  0.96612628     0.17100
O3358       O  0.63899695  0.37094012  0.92954957    -0.59900
H3359       H  0.63035195  0.39137907  0.93064600     0.44100
H3360       H  0.55448464  0.27400844  0.90286200     0.44100
C3361       C  0.61422792  0.40622208  0.81559394    -0.05000
C3362       C  0.62095297  0.43675652  0.81329404    -0.32400
C3363       C  0.59837431  0.45803492  0.80823697     0.36800
C3364       C  0.56846062  0.44897844  0.80673633    -0.05300
C3365       C  0.56171898  0.41835284  0.80777635    -0.32300
C3366       C  0.58448953  0.39695628  0.81196284     0.36800
H3367       H  0.64366688  0.44422782  0.81641970     0.17100
O3368       O  0.60547591  0.48782950  0.80713541    -0.59800
H3369       H  0.53869304  0.41114837  0.80674438     0.17100
O3370       O  0.57733632  0.36720588  0.81408875    -0.59900
H3371       H  0.57319603  0.36347912  0.83564516     0.44100
H3372       H  0.61016168  0.49210336  0.78577849     0.44100
C3373       C  0.68646389  0.40826951  0.88814772    -0.05000
C3374       C  0.67577073  0.43768932  0.88490302    -0.32400
C3375       C  0.68043221  0.45877193  0.90727670     0.36800
C3376       C  0.69600066  0.45068437  0.93363127    -0.05300
C3377       C  0.70848367  0.42182420  0.93621691    -0.32300
C3378       C  0.70367031  0.40054205  0.91370508     0.36800
H3379       H  0.66255505  0.44404005  0.86547513     0.17100
O3380       O  0.66854947  0.48696113  0.90373731    -0.59800
H3381       H  0.72021897  0.41516009  0.95656217     0.17100
O3382       O  0.71311720  0.37159304  0.91833231    -0.59900
H3383       H  0.73500283  0.37198628  0.91530924     0.44100
H3384       H  0.68482170  0.49914421  0.89492333     0.44100
C3385       C  0.64855792  0.15443952  0.79380790    -0.05000
C3386       C  0.67380255  0.14289587  0.77943004    -0.32400
C3387       C  0.67430376  0.13972462  0.74831694     0.36800
C3388       C  0.64911907  0.14776197  0.73114275    -0.05300
C3389       C  0.62352364  0.15873175  0.74542929    -0.32300
C3390       C  0.62313584  0.16211183  0.77666979     0.36800
H3391       H  0.69261546  0.13489029  0.79244141     0.17100
O3392       O  0.69895674  0.12740090  0.73501214    -0.59800
H3393       H  0.60404234  0.16509236  0.73228992     0.17100
O3394       O  0.59825863  0.17371331  0.79017950    -0.59900
H3395       H  0.58363531  0.15715392  0.79068963     0.44100
H3396       H  0.71293388  0.14426493  0.73192632     0.44100
C3397       C  0.64930658  0.29611855  0.85551585    -0.05000
C3398       C  0.66675541  0.28107406  0.87715632    -0.32400
C3399       C  0.66667357  0.24975557  0.87916728     0.36800
C3400       C  0.64884657  0.23314540  0.85951292    -0.05300
C3401       C  0.63107566  0.24808249  0.83813779    -0.32300
C3402       C  0.63085809  0.27947247  0.83629400     0.36800
H3403       H  0.68068962  0.29365875  0.89231708     0.17100
O3404       O  0.68409645  0.23551557  0.90036460    -0.59800
H3405       H  0.61714495  0.23538277  0.82305517     0.17100
O3406       O  0.61258049  0.29377033  0.81579136    -0.59900
H3407       H  0.59206632  0.28654381  0.81976897     0.44100
H3408       H  0.70408819  0.23379276  0.89105245     0.44100
C3409       C  0.60911370  0.11832466  0.83804115    -0.05000
C3410       C  0.58097863  0.11905245  0.85183938    -0.32400
C3411       C  0.55942434  0.09731481  0.84589392     0.36800
C3412       C  0.56539456  0.07453174  0.82528183    -0.05300
C3413       C  0.59335263  0.07355749  0.81135044    -0.32300
C3414       C  0.61542465  0.09479337  0.81804072     0.36800
H3415       H  0.57569152  0.13645178  0.86762610     0.17100
O3416       O  0.53221887  0.09896768  0.85979051    -0.59800
H3417       H  0.59857497  0.05548350  0.79623607     0.17100
O3418       O  0.64372995  0.09073854  0.80714804    -0.59900
H3419       H  0.64159455  0.08941727  0.78503089     0.44100
H3420       H  0.53526322  0.08929047  0.87973203     0.44100
C3421       C  0.69013604  0.07722990  0.94968470    -0.05000
C3422       C  0.70380295  0.07634003  0.92149755    -0.32400
C3423       C  0.69926355  0.09954076  0.90047009     0.36800
C3424       C  0.68080510  0.12399345  0.90775937    -0.05300
C3425       C  0.66811839  0.12527598  0.93642864    -0.32300
C3426       C  0.67246875  0.10206966  0.95724854     0.36800
H3427       H  0.71624702  0.05666327  0.91502036     0.17100
O3428       O  0.71044630  0.09667716  0.87204420    -0.59800
H3429       H  0.65370531  0.14375870  0.94231453     0.17100
O3430       O  0.65909414  0.10366514  0.98483408    -0.59900
H3431       H  0.63806999  0.09770010  0.98144443     0.44100
H3432       H  0.73239051  0.09858489  0.87421724     0.44100
C3433       C  0.61019415  0.19714678  0.90263805    -0.05000
C3434       C  0.61880008  0.19902078  0.93284375    -0.32400
C3435       C  0.59749001  0.20380449  0.95528100     0.36800
C3436       C  0.56717533  0.20723270  0.94755228    -0.05300
C3437       C  0.55893273  0.20796598  0.91713108    -0.32300
C3438       C  0.58028154  0.20296135  0.89464726     0.36800
H3439       H  0.64187876  0.19520317  0.93918465     0.17100
O3440       O  0.60626050  0.20368623  0.98481256    -0.59800
H3441       H  0.53564104  0.21052717  0.91090362     0.17100
O3442       O  0.57169444  0.20278301  0.86504071    -0.59900
H3443       H  0.55740767  0.18605433  0.86314859     0.44100
H3444       H  0.60635286  0.18232849  0.99116164     0.44100
C3445       C  0.85700801  0.14653450  0.73000255    -0.05000
C3446       C  0.87010595  0.17203499  0.74227085    -0.32400
C3447       C  0.86874665  0.17721212  0.77318125     0.36800
C3448       C  0.85607225  0.15554847  0.79229670    -0.05300
C3449       C  0.84286021  0.13010876  0.78005606    -0.32300
C3450       C  0.84225373  0.12614188  0.74898629     0.36800
H3451       H  0.88150099  0.18789825  0.72791498     0.17100
O3452       O  0.88016549  0.20313698  0.78466735    -0.59800
H3453       H  0.83230861  0.11374759  0.79462613     0.17100
O3454       O  0.82645120  0.10281807  0.73737988    -0.59900
H3455       H  0.80688110  0.11151386  0.73132836     0.44100
H3456       H  0.90182892  0.20275776  0.78023444     0.44100
C3457       C  0.72175403  0.16276060  0.86583296    -0.05000
C3458       C  0.73738194  0.16053003  0.83870999    -0.32400
C3459       C  0.76865205  0.15972461  0.83795638     0.36800
C3460       C  0.78529677  0.16198396  0.86465907    -0.05300
C3461       C  0.76985097  0.16536282  0.89183076    -0.32300
C3462       C  0.73844480  0.16592401  0.89256091     0.36800
H3463       H  0.72544189  0.15910529  0.81780936     0.17100
O3464       O  0.78268589  0.15517675  0.81109170    -0.59800
H3465       H  0.78217155  0.16809836  0.91256159     0.17100
O3466       O  0.72438622  0.17030233  0.91941691    -0.59900
H3467       H  0.72541197  0.19212833  0.92289213     0.44100
H3468       H  0.78021613  0.17417500  0.79956906     0.44100
C3469       C  0.82580955  0.12290770  0.90596288    -0.05000
C3470       C  0.80826603  0.09839824  0.89768697    -0.32400
C3471       C  0.80221115  0.07532858  0.91842666     0.36800
C3472       C  0.81369864  0.07670811  0.94784239    -0.05300
C3473       C  0.83007195  0.10183512  0.95638977    -0.32300
C3474       C  0.83621110  0.12477142  0.93571062     0.36800
H3475       H  0.80068120  0.09635415  0.87469457     0.17100
O3476       O  0.78775847  0.05023452  0.90886487    -0.59800
H3477       H  0.83901438  0.10320471  0.97896330     0.17100
O3478       O  0.85252235  0.14894146  0.94472001    -0.59900
H3479       H  0.87328466  0.14144833  0.94717627     0.44100
H3480       H  0.76716005  0.05225144  0.91644685     0.44100
C3481       C  0.93855794  0.07207662  0.82232073    -0.05000
C3482       C  0.93954923  0.09966003  0.80702869    -0.32400
C3483       C  0.91871774  0.12242598  0.81316119     0.36800
C3484       C  0.89576497  0.11734610  0.83423491    -0.05300
C3485       C  0.89437068  0.08937895  0.84880743    -0.32300
C3486       C  0.91549717  0.06692955  0.84313634     0.36800
H3487       H  0.95754035  0.10422157  0.79148287     0.17100
O3488       O  0.92283098  0.15033774  0.80080780    -0.59800
H3489       H  0.87706771  0.08506158  0.86519388     0.17100
O3490       O  0.91386574  0.04024862  0.85862842    -0.59900
H3491       H  0.89585015  0.03017485  0.85076710     0.44100
H3492       H  0.92340999  0.14749150  0.77873907     0.44100
C3493       C  0.94231462  0.20071855  0.94541287    -0.05000
C3494       C  0.95050308  0.18978541  0.91728868    -0.32400
C3495       C  0.92913032  0.18576651  0.89490875     0.36800
C3496       C  0.89910487  0.19281101  0.90045448    -0.05300
C3497       C  0.89100975  0.20527719  0.92800168    -0.32300
C3498       C  0.91248631  0.20900572  0.95071825     0.36800
H3499       H  0.97338813  0.18304256  0.91316083     0.17100
O3500       O  0.93745457  0.17304175  0.86837315    -0.59800
H3501       H  0.86775545  0.21003822  0.93263831     0.17100
O3502       O  0.90380820  0.21760947  0.97885865    -0.59900
H3503       H  0.89380937  0.23731513  0.97621656     0.44100
H3504       H  0.94132031  0.19012035  0.85452907     0.44100
C3505       C  0.86040199  0.35546726  0.71248264    -0.05000
C3506       C  0.84480834  0.37916087  0.72562291    -0.32400
C3507       C  0.84438239  0.38217803  0.75687041     0.36800
C3508       C  0.85985642  0.36145879  0.77523049    -0.05300
C3509       C  0.87615662  0.33831246  0.76208924    -0.32300
C3510       C  0.87699414  0.33553133  0.73082634     0.36800
H3511       H  0.83269499  0.39512872  0.71162898     0.17100
O3512       O  0.82864938  0.40525805  0.76931588    -0.59800
H3513       H  0.88865156  0.32268586  0.77608287     0.17100
O3514       O  0.89443389  0.31368934  0.71826532    -0.59900
H3515       H  0.91519394  0.31772628  0.72476863     0.44100
H3516       H  0.80768780  0.39829412  0.76994559     0.44100
C3517       C  0.78855182  0.36641465  0.84714672    -0.05000
C3518       C  0.77308459  0.33944465  0.85080073    -0.32400
C3519       C  0.74189131  0.33893332  0.85217968     0.36800
C3520       C  0.72541571  0.36574952  0.84954026    -0.05300
C3521       C  0.74074592  0.39265424  0.84437824    -0.32300
C3522       C  0.77200773  0.39309672  0.84289570     0.36800
H3523       H  0.78510828  0.31858752  0.85301025     0.17100
O3524       O  0.72781833  0.31225844  0.85762373    -0.59800
H3525       H  0.72842292  0.41335847  0.84099191     0.17100
O3526       O  0.78609948  0.41961708  0.83678571    -0.59900
H3527       H  0.78553128  0.42184811  0.81463294     0.44100
H3528       H  0.72978103  0.30076157  0.83884106     0.44100
C3529       C  0.86021573  0.23241443  0.85971695    -0.05000
C3530       C  0.88527305  0.24635416  0.84702538    -0.32400
C3531       C  0.88641087  0.27769688  0.84392924     0.36800
C3532       C  0.86255092  0.29537267  0.85421805    -0.05300
C3533       C  0.83816847  0.28134149  0.86798560    -0.32300
C3534       C  0.83663827  0.25013428  0.87031366     0.36800
H3535       H  0.90365899  0.23288298  0.83894374     0.17100
O3536       O  0.91086513  0.29089005  0.83106052    -0.59800
H3537       H  0.82055462  0.29465588  0.87760466     0.17100
O3538       O  0.81243806  0.23716127  0.88386982    -0.59900
H3539       H  0.79779238  0.23405493  0.86748020     0.44100
H3540       H  0.91009558  0.28537957  0.80959762     0.44100
C3541       C  0.81737722  0.45064574  0.93060597    -0.05000
C3542       C  0.80249565  0.42307875  0.93069486    -0.32400
C3543       C  0.80873263  0.40166022  0.90872791     0.36800
C3544       C  0.82909316  0.40827812  0.88545949    -0.05300
C3545       C  0.84259901  0.43653391  0.88476785    -0.32300
C3546       C  0.83709324  0.45745319  0.90704967     0.36800
H3547       H  0.78755237  0.41735995  0.94891115     0.17100
O3548       O  0.79625654  0.37383284  0.91140632    -0.59800
H3549       H  0.85836990  0.44221364  0.86737751     0.17100
O3550       O  0.85192429  0.48422040  0.90611592    -0.59900
H3551       H  0.83849139  0.49815846  0.89492689     0.44100
H3552       H  0.81199516  0.36095316  0.92061301     0.44100
C3553       C  0.90390302  0.33977999  0.88820858    -0.05000
C3554       C  0.89941378  0.31628857  0.90902974    -0.32400
C3555       C  0.92117071  0.30876947  0.93054148     0.36800
C3556       C  0.94717978  0.32592032  0.93295571    -0.05300
C3557       C  0.95185382  0.34936677  0.91243708    -0.32300
C3558       C  0.93082155  0.35612994  0.88998514     0.36800
H3559       H  0.87870388  0.30407407  0.90939271     0.17100
O3560       O  0.91612861  0.28545466  0.95001694    -0.59800
H3561       H  0.97209052  0.36246856  0.91367582     0.17100
O3562       O  0.93739924  0.37811042  0.86933117    -0.59900
H3563       H  0.93875784  0.39696007  0.88075491     0.44100
H3564       H  0.92563035  0.26798532  0.94038506     0.44100
C3565       C  0.89715297  0.40568634  0.81015540    -0.05000
C3566       C  0.88918206  0.43602223  0.81065089    -0.32400
C3567       C  0.91069684  0.45813409  0.80626226     0.36800
C3568       C  0.94054675  0.44989888  0.80128553    -0.05300
C3569       C  0.94808490  0.41962065  0.79818648    -0.32300
C3570       C  0.92639855  0.39740362  0.80231658     0.36800
H3571       H  0.86654956  0.44253971  0.81606968     0.17100
O3572       O  0.90288408  0.48762075  0.80952384    -0.59800
H3573       H  0.97107016  0.41314848  0.79423622     0.17100
O3574       O  0.93403942  0.36771632  0.79990547    -0.59900
H3575       H  0.94986212  0.36382516  0.81509257     0.44100
H3576       H  0.90009368  0.49553275  0.78878800     0.44100
C3577       C  0.83749584  0.84478574  0.32903395     0.46000
H3578       H  0.82367395  0.82891840  0.31604302    -0.03100
C3579       C  0.87028031  0.88183425  0.35874108     0.46000
H3580       H  0.88392108  0.89795327  0.37139109    -0.03100
C3581       C  0.85713696  0.86470541  0.30899825    -0.16800
C3582       C  0.81914389  0.86684078  0.34803507    -0.16500
C3583       C  0.85948424  0.82930577  0.35106018    -0.16900
C3584       C  0.87418632  0.88434766  0.32463201    -0.16900
C3585       C  0.83663890  0.88609619  0.36428398    -0.16400
C3586       C  0.87726465  0.84883402  0.36669617    -0.16800
C3587       C  0.87023662  0.64980407  0.37661830     0.46000
H3588       H  0.88461229  0.63626309  0.39206374    -0.03100
C3589       C  0.83704564  0.68169131  0.34034602     0.46000
H3590       H  0.82322282  0.69565376  0.32481929    -0.03100
C3591       C  0.83666407  0.64584479  0.38210322    -0.16800
C3592       C  0.87572921  0.68343886  0.37865143    -0.16500
C3593       C  0.87497940  0.64235111  0.34354298    -0.16900
C3594       C  0.81886324  0.66257359  0.36288232    -0.16900
C3595       C  0.85829488  0.70034479  0.35971338    -0.16400
C3596       C  0.85746056  0.65913456  0.32433643    -0.16800
C3597       C  0.66948972  0.68100269  0.34322363     0.46000
H3598       H  0.68273351  0.69469784  0.32718401    -0.03100
C3599       C  0.63783620  0.64972588  0.38065079     0.46000
H3600       H  0.62426358  0.63640727  0.39671978    -0.03100
C3601       C  0.64868386  0.65833160  0.32787249    -0.16800
C3602       C  0.68870730  0.66233762  0.36560412    -0.16500
C3603       C  0.64882194  0.70005873  0.36302987    -0.16900
C3604       C  0.63187029  0.64174127  0.34771010    -0.16900
C3605       C  0.67169114  0.64539923  0.38512913    -0.16400
C3606       C  0.63227491  0.68351029  0.38281788    -0.16800
C3607       C  0.63848433  0.88181585  0.36022678     0.46000
H3608       H  0.62419209  0.89763523  0.37284456    -0.03100
C3609       C  0.67109594  0.84458917  0.33029907     0.46000
H3610       H  0.68501069  0.82865897  0.31745553    -0.03100
C3611       C  0.67208213  0.88597822  0.36557395    -0.16800
C3612       C  0.63239761  0.84885437  0.36831631    -0.16500
C3613       C  0.63422505  0.88456476  0.32605064    -0.16900
C3614       C  0.68950387  0.86627750  0.34968632    -0.16900
C3615       C  0.64920843  0.82915440  0.35206966    -0.16400
C3616       C  0.65164961  0.86508172  0.31005133    -0.16800
C3617       C  0.67457072  0.82927015  0.16463965     0.46000
H3618       H  0.68946577  0.81625942  0.18000935    -0.03100
C3619       C  0.64004202  0.85948748  0.12823874     0.46000
H3620       H  0.62517572  0.87229628  0.11262306    -0.03100
C3621       C  0.65312442  0.85088146  0.18074065    -0.16800
C3622       C  0.69162539  0.84902632  0.14206539    -0.16500
C3623       C  0.65440477  0.80965504  0.14516402    -0.16900
C3624       C  0.63495926  0.86690916  0.16130125    -0.16900
C3625       C  0.67327447  0.86498944  0.12294889    -0.16400
C3626       C  0.63610916  0.82562472  0.12620274    -0.16800
C3627       C  0.87184122  0.85863025  0.12789316     0.46000
H3628       H  0.88656474  0.87066490  0.11186931    -0.03100
C3629       C  0.83823462  0.82989459  0.16559607     0.46000
H3630       H  0.82348929  0.81799066  0.18163027    -0.03100
C3631       C  0.83845932  0.86492695  0.12309913    -0.16800
C3632       C  0.87514029  0.82447959  0.12625176    -0.16500
C3633       C  0.87802339  0.86674291  0.16067555    -0.16900
C3634       C  0.82063044  0.84991633  0.14319905    -0.16900
C3635       C  0.85714381  0.80892121  0.14586464    -0.16400
C3636       C  0.86072090  0.85106405  0.18065915    -0.16800
C3637       C  0.63564278  0.63053230  0.14843005     0.46000
H3638       H  0.62061900  0.61623592  0.13497786    -0.03100
C3639       C  0.67054166  0.66417817  0.17983117     0.46000
H3640       H  0.68540532  0.67875334  0.19320494    -0.03100
C3641       C  0.66882179  0.62286849  0.14460325    -0.16800
C3642       C  0.63284324  0.66392140  0.14028859    -0.16500
C3643       C  0.62985269  0.62852221  0.18233238    -0.16900
C3644       C  0.68729243  0.64093288  0.16096168    -0.16900
C3645       C  0.65097969  0.68163857  0.15724261    -0.16400
C3646       C  0.64847945  0.64600319  0.19896566    -0.16800
C3647       C  0.83394930  0.66268283  0.17678590     0.46000
H3648       H  0.81982001  0.67799926  0.19016805    -0.03100
C3649       C  0.86662294  0.62616383  0.14607064     0.46000
H3650       H  0.88090704  0.61056711  0.13315896    -0.03100
C3651       C  0.85434401  0.64257488  0.19628947    -0.16800
C3652       C  0.81578198  0.64098109  0.15755812    -0.16500
C3653       C  0.85475423  0.67874234  0.15443367    -0.16900
C3654       C  0.87129024  0.62312177  0.18005279    -0.16900
C3655       C  0.83303013  0.62176718  0.14114036    -0.16400
C3656       C  0.87237813  0.65930212  0.13839042    -0.16800
O3657       O  0.53400368  0.53159758  0.17476638    -0.71300
O3658       O  0.97475128  0.97335925  0.16407111    -0.71500
O3659       O  0.97410986  0.53095660  0.17368171    -0.71400
O3660       O  0.53519376  0.97218383  0.16217222    -0.71400
O3661       O  0.53554031  0.96280946  0.21013621    -0.71300
O3662       O  0.97254183  0.52205593  0.22173505    -0.71400
O3663       O  0.97568134  0.96364863  0.21195801    -0.71300
O3664       O  0.53312702  0.52405739  0.22304424    -0.71500
V3665       V  0.50519638  0.50147611  0.17016843     1.35200
V3666       V  0.50453013  0.49313387  0.21636754     1.35200
C3667       C  0.54284847  0.53864454  0.20061486     0.77900
C3668       C  0.96510304  0.95839809  0.18617579     0.78000
C3669       C  0.96298386  0.53645192  0.19898728     0.77900
C3670       C  0.54575226  0.95758509  0.18431109     0.77800
O3671       O  0.53346522  0.97761965  0.33074873    -0.71300
O3672       O  0.97108389  0.53484309  0.34158748    -0.71500
O3673       O  0.97304155  0.97622652  0.32903508    -0.71400
O3674       O  0.53176155  0.53684996  0.34518391    -0.71400
O3675       O  0.53578672  0.54372984  0.29701143    -0.71300
O3676       O  0.97368536  0.98518484  0.28095670    -0.71400
O3677       O  0.97421581  0.54590853  0.29409243    -0.71300
O3678       O  0.53251357  0.98562215  0.28252025    -0.71500
V3679       V  0.50379943  0.50599793  0.33772605     1.35200
V3680       V  0.50527859  0.51473421  0.29163342     1.35200
C3681       C  0.54320036  0.97156785  0.30498581     0.77900
C3682       C  0.96211213  0.55018816  0.31932758     0.78000
C3683       C  0.96321174  0.97082449  0.30312884     0.77900
C3684       C  0.54358694  0.55059580  0.32333709     0.77800
O3685       O  0.71669088  0.97620884  0.47319119    -0.71300
O3686       O  0.71598763  0.53283884  0.03810263    -0.71500
O3687       O  0.71692052  0.97365195  0.03280954    -0.71400
O3688       O  0.71920092  0.53675632  0.47643940    -0.71400
O3689       O  0.67111618  0.54014387  0.48163788    -0.71300
O3690       O  0.66928073  0.96825334  0.02532067    -0.71400
O3691       O  0.66812565  0.52580918  0.04076283    -0.71300
O3692       O  0.66886042  0.98308415  0.46829044    -0.71500
V3693       V  0.71691567  0.50488976  0.00606850     1.35200
V3694       V  0.67055852  0.50413789  0.00446245     1.35200
C3695       C  0.69271492  0.97106702  0.45908771     0.77900
C3696       C  0.69137707  0.53801775  0.05097196     0.78000
C3697       C  0.69315417  0.95924764  0.03765121     0.77900
C3698       C  0.69487653  0.55019534  0.47033101     0.77800
O3699       O  0.97304345  0.66551140  0.03414522    -0.71300
O3700       O  0.53478095  0.67500540  0.47900474    -0.71500
O3701       O  0.53414107  0.66782546  0.03723891    -0.71400
O3702       O  0.97570974  0.67531521  0.47437834    -0.71400
O3703       O  0.97070045  0.72254672  0.48448187    -0.71300
O3704       O  0.53244282  0.71591538  0.04372661    -0.71400
O3705       O  0.53244685  0.72307840  0.48559398    -0.71300
O3706       O  0.97233553  0.71284896  0.04455741    -0.71500
V3707       V  0.50420342  0.67194911  0.00743432     1.35200
V3708       V  0.50168800  0.71806498  0.01409211     1.35200
C3709       C  0.96224314  0.68677922  0.04912343     0.77900
C3710       C  0.54389709  0.70091090  0.47236773     0.78000
C3711       C  0.54393396  0.69072437  0.05024514     0.77900
C3712       C  0.96327854  0.70023744  0.46903574     0.77800
O3713       O  0.83653036  0.98283264  0.46735964    -0.71300
O3714       O  0.83631971  0.52767137  0.03770400    -0.71500
O3715       O  0.83735618  0.96868343  0.02501305    -0.71400
O3716       O  0.83825230  0.54059717  0.47867502    -0.71400
O3717       O  0.79044088  0.53641925  0.47166453    -0.71300
O3718       O  0.78949170  0.97275477  0.03170875    -0.71400
O3719       O  0.78834891  0.53325757  0.03251091    -0.71300
O3720       O  0.78866998  0.97638401  0.47106661    -0.71500
V3721       V  0.83654570  0.50552722  0.00194934     1.35200
V3722       V  0.79017948  0.50471218  0.00103053     1.35200
C3723       C  0.81292345  0.97104628  0.45756527     0.77900
C3724       C  0.81209291  0.53871520  0.04691175     0.78000
C3725       C  0.81387842  0.95935684  0.03748901     0.77900
C3726       C  0.81456052  0.55004758  0.46620243     0.77800
O3727       O  0.97800156  0.84266368  0.47016437    -0.71300
O3728       O  0.53239658  0.83220350  0.03566285    -0.71500
O3729       O  0.53743881  0.84208556  0.47696476    -0.71400
O3730       O  0.97247158  0.83299993  0.02995664    -0.71400
O3731       O  0.97637334  0.78462653  0.02650172    -0.71300
O3732       O  0.53434632  0.79532028  0.46473320    -0.71400
O3733       O  0.53705738  0.78521039  0.02451521    -0.71300
O3734       O  0.97489231  0.79436804  0.46639121    -0.71500
V3735       V  0.50493024  0.83687178  0.00380386     1.35200
V3736       V  0.50564351  0.79102725  0.99578331     1.35200
C3737       C  0.96678154  0.82025934  0.45752942     0.77900
C3738       C  0.54438970  0.80703057  0.04075077     0.78000
C3739       C  0.54618390  0.82071682  0.46083256     0.77900
C3740       C  0.96438214  0.80720713  0.03837768     0.77800
C3741       C  0.82202150  0.59887597  0.11995095    -0.05000
C3742       C  0.83531952  0.57041760  0.12116405    -0.32400
C3743       C  0.83087076  0.55000221  0.09819896     0.36800
C3744       C  0.81232919  0.55762879  0.07368289    -0.05300
C3745       C  0.79708323  0.58509895  0.07346570    -0.32300
C3746       C  0.80202031  0.60591174  0.09626597     0.36800
H3747       H  0.85051788  0.56448678  0.13925137     0.17100
O3748       O  0.84515954  0.52275981  0.09962940    -0.59800
H3749       H  0.78309242  0.59135017  0.05448718     0.17100
O3750       O  0.78976541  0.63400273  0.09343204    -0.59900
H3751       H  0.76791010  0.63119357  0.09542430     0.44100
H3752       H  0.86588042  0.52669123  0.09297863     0.44100
C3753       C  0.89503432  0.66779662  0.11548747    -0.05000
C3754       C  0.89482095  0.65314861  0.08782054    -0.32400
C3755       C  0.91631604  0.65945447  0.06599050     0.36800
C3756       C  0.93851274  0.68095987  0.07144248    -0.05300
C3757       C  0.93861249  0.69588804  0.09897559    -0.32300
C3758       C  0.91752914  0.68894569  0.12118305     0.36800
H3759       H  0.87780828  0.63671993  0.08306750     0.17100
O3760       O  0.91537452  0.64444224  0.03935276    -0.59800
H3761       H  0.95582340  0.71209025  0.10374927     0.17100
O3762       O  0.91976783  0.70219609  0.14865712    -0.59900
H3763       H  0.93191693  0.68815175  0.16113505     0.44100
H3764       H  0.90522726  0.65830414  0.02499538     0.44100
C3765       C  0.89390486  0.60218506  0.19249694    -0.05000
C3766       C  0.92383778  0.61088790  0.19187095    -0.32400
C3767       C  0.94665614  0.58970464  0.19590637     0.36800
C3768       C  0.93962638  0.55949245  0.20124478    -0.05300
C3769       C  0.90968094  0.55099792  0.20358872    -0.32300
C3770       C  0.88673907  0.57216441  0.19905062     0.36800
H3771       H  0.92953597  0.63381219  0.18625538     0.17100
O3772       O  0.97580655  0.59844934  0.19325584    -0.59800
H3773       H  0.90407422  0.52763626  0.20691445     0.17100
O3774       O  0.85760474  0.56290234  0.19822372    -0.59900
H3775       H  0.85370832  0.55363216  0.21815460     0.44100
H3776       H  0.97960051  0.59939224  0.17135644     0.44100
C3777       C  0.72022736  0.64014641  0.15993426    -0.05000
C3778       C  0.73543411  0.66650377  0.15247970    -0.32400
C3779       C  0.76656227  0.66693933  0.15152993     0.36800
C3780       C  0.78288258  0.64075237  0.15830232    -0.05300
C3781       C  0.76777058  0.61442840  0.16618314    -0.32300
C3782       C  0.73653476  0.61395139  0.16691331     0.36800
H3783       H  0.72312938  0.68675878  0.14702273     0.17100
O3784       O  0.78081332  0.69251808  0.14227923    -0.59800
H3785       H  0.78024042  0.59431709  0.17202307     0.17100
O3786       O  0.72217079  0.58834813  0.17588165    -0.59900
H3787       H  0.72570005  0.57373050  0.15971007     0.44100
H3788       H  0.78030714  0.70600857  0.15975724     0.44100
C3789       C  0.56854680  0.68751229  0.07207595    -0.05000
C3790       C  0.59114822  0.66652720  0.06645659    -0.32400
C3791       C  0.61332248  0.66042952  0.08777286     0.36800
C3792       C  0.61261790  0.67454628  0.11579206    -0.05300
C3793       C  0.59064499  0.69644026  0.12098191    -0.32300
C3794       C  0.56897629  0.70336208  0.09912828     0.36800
H3795       H  0.59145062  0.65453431  0.04548760     0.17100
O3796       O  0.63519590  0.63998928  0.08123042    -0.59800
H3797       H  0.58913369  0.70706991  0.14247300     0.17100
O3798       O  0.54748756  0.72444085  0.10505706    -0.59900
H3799       H  0.53197300  0.71366582  0.11667333     0.44100
H3800       H  0.65191847  0.65198603  0.07305368     0.44100
C3801       C  0.68928332  0.55834715  0.07678767    -0.05000
C3802       C  0.67101399  0.55060670  0.10112530    -0.32400
C3803       C  0.66567082  0.57092968  0.12419200     0.36800
C3804       C  0.67849268  0.59960724  0.12306545    -0.05300
C3805       C  0.69780315  0.60693008  0.09936299    -0.32300
C3806       C  0.70320559  0.58653289  0.07629925     0.36800
H3807       H  0.66044218  0.52887084  0.10200985     0.17100
O3808       O  0.64820942  0.56248115  0.14803959    -0.59800
H3809       H  0.70741365  0.62907323  0.09785371     0.17100
O3810       O  0.72058846  0.59506163  0.05246348    -0.59900
H3811       H  0.70660073  0.60449615  0.03779624     0.44100
H3812       H  0.62751250  0.56182407  0.14009812     0.44100
C3813       C  0.56314154  0.56422132  0.20338103    -0.05000
C3814       C  0.55586465  0.59030799  0.18711753    -0.32400
C3815       C  0.57688808  0.61273166  0.18259764     0.36800
C3816       C  0.60587054  0.60919659  0.19423087    -0.05300
C3817       C  0.61260770  0.58429887  0.21272671    -0.32300
C3818       C  0.59127978  0.56175120  0.21740451     0.36800
H3819       H  0.53426085  0.59255394  0.17634238     0.17100
O3820       O  0.56927037  0.63768829  0.16589868    -0.59800
H3821       H  0.63496430  0.58129633  0.22166640     0.17100
O3822       O  0.59889280  0.53651641  0.23360036    -0.59900
H3823       H  0.60751600  0.52256234  0.21879579     0.44100
H3824       H  0.56746446  0.63079702  0.14490586     0.44100
C3825       C  0.85532718  0.77547364  0.14797446    -0.05000
C3826       C  0.85244265  0.75826707  0.12191889    -0.32400
C3827       C  0.85221392  0.72683447  0.12334551     0.36800
C3828       C  0.85449631  0.71200133  0.15133647    -0.05300
C3829       C  0.85480017  0.72918282  0.17737008    -0.32300
C3830       C  0.85497689  0.76043094  0.17594739     0.36800
H3831       H  0.84926196  0.76905724  0.10038997     0.17100
O3832       O  0.84759429  0.71093816  0.09761238    -0.59800
H3833       H  0.85473714  0.71846696  0.19917243     0.17100
O3834       O  0.85525737  0.77587991  0.20222807    -0.59900
H3835       H  0.83508431  0.77328503  0.21093357     0.44100
H3836       H  0.86472146  0.71564243  0.08436676     0.44100
C3837       C  0.94178359  0.80410825  0.06188058    -0.05000
C3838       C  0.94992295  0.80894761  0.09181856    -0.32400
C3839       C  0.92803904  0.81273452  0.11380861     0.36800
C3840       C  0.89766133  0.81155833  0.10590559    -0.05300
C3841       C  0.88969266  0.80512699  0.07620352    -0.32300
C3842       C  0.91155431  0.80106570  0.05429119     0.36800
H3843       H  0.97320236  0.81147668  0.09781883     0.17100
O3844       O  0.93645250  0.81942668  0.14257215    -0.59800
H3845       H  0.86647062  0.80518557  0.06948756     0.17100
O3846       O  0.90310896  0.79685648  0.02505565    -0.59900
H3847       H  0.90182517  0.77485221  0.02286722     0.44100
H3848       H  0.94009434  0.84129480  0.14233703     0.44100
C3849       C  0.82797240  0.88689838  0.09991261    -0.05000
C3850       C  0.80943925  0.91101935  0.10787403    -0.32400
C3851       C  0.80339357  0.93437187  0.08730030     0.36800
C3852       C  0.81575859  0.93358547  0.05831395    -0.05300
C3853       C  0.83350291  0.90918530  0.05021709    -0.32300
C3854       C  0.83954195  0.88599024  0.07062310     0.36800
H3855       H  0.80114912  0.91266263  0.13059123     0.17100
O3856       O  0.78809332  0.95915158  0.09673109    -0.59800
H3857       H  0.84341673  0.90845612  0.02809331     0.17100
O3858       O  0.85771734  0.86299239  0.06194361    -0.59900
H3859       H  0.84514104  0.85054062  0.04873436     0.44100
H3860       H  0.76761329  0.95681857  0.08872494     0.44100
C3861       C  0.94197287  0.93548536  0.18149645    -0.05000
C3862       C  0.92003487  0.94045155  0.15941786    -0.32400
C3863       C  0.89871474  0.91861646  0.15313866     0.36800
C3864       C  0.89931451  0.89093684  0.16871701    -0.05300
C3865       C  0.92122974  0.88609221  0.19091564    -0.32300
C3866       C  0.94215391  0.90825524  0.19767877     0.36800
H3867       H  0.91930322  0.96147345  0.14701764     0.17100
O3868       O  0.87673675  0.92499809  0.13246337    -0.59800
H3869       H  0.92286259  0.86476585  0.20242754     0.17100
O3870       O  0.96389786  0.90232594  0.21871095    -0.59900
H3871       H  0.95355627  0.90253627  0.23811886     0.44100
H3872       H  0.88684274  0.92553852  0.11271016     0.44100
C3873       C  0.65391761  0.77686852  0.14820302    -0.05000
C3874       C  0.63430879  0.76351280  0.16863670    -0.32400
C3875       C  0.63421437  0.73242739  0.17274448     0.36800
C3876       C  0.65220961  0.71444527  0.15448868    -0.05300
C3877       C  0.67166710  0.72777540  0.13382289    -0.32300
C3878       C  0.67333944  0.75894713  0.13137356     0.36800
H3879       H  0.61923794  0.77721759  0.18157992     0.17100
O3880       O  0.61696646  0.71965512  0.19483279    -0.59800
H3881       H  0.68575034  0.71401359  0.11986396     0.17100
O3882       O  0.69363654  0.77167719  0.11220659    -0.59900
H3883       H  0.71120103  0.77629686  0.12490334     0.44100
H3884       H  0.59614251  0.72618249  0.19070393     0.44100
C3885       C  0.72463962  0.85005648  0.14163316    -0.05000
C3886       C  0.73998291  0.85704522  0.16805037    -0.32400
C3887       C  0.77120412  0.85746880  0.16873894     0.36800
C3888       C  0.78752899  0.85086041  0.14271832    -0.05300
C3889       C  0.77214893  0.84380124  0.11628015    -0.32300
C3890       C  0.74088834  0.84342460  0.11556492     0.36800
H3891       H  0.72767041  0.86239761  0.18818031     0.17100
O3892       O  0.78552095  0.86540196  0.19463818    -0.59800
H3893       H  0.78443966  0.83796925  0.09628588     0.17100
O3894       O  0.72643555  0.83486390  0.08989588    -0.59900
H3895       H  0.73032558  0.85094896  0.07489274     0.44100
H3896       H  0.78413287  0.84768397  0.20818152     0.44100
C3897       C  0.61214917  0.81313857  0.10738174    -0.05000
C3898       C  0.58279138  0.82146677  0.11396901    -0.32400
C3899       C  0.55999902  0.81736972  0.09305289     0.36800
C3900       C  0.56631656  0.80421168  0.06526645    -0.05300
C3901       C  0.59517856  0.79336575  0.05967367    -0.32300
C3902       C  0.61826553  0.79823806  0.08041262     0.36800
H3903       H  0.57787918  0.83301763  0.13462400     0.17100
O3904       O  0.53172101  0.82729586  0.09945538    -0.59800
H3905       H  0.60035286  0.78350034  0.03822367     0.17100
O3906       O  0.64691915  0.79047075  0.07307444    -0.59900
H3907       H  0.65538943  0.80848033  0.06315068     0.44100
H3908       H  0.53219621  0.84929195  0.09623890     0.44100
C3909       C  0.68296998  0.88707064  0.10011144    -0.05000
C3910       C  0.67184272  0.88464345  0.07081287    -0.32400
C3911       C  0.67661493  0.90736300  0.04963951     0.36800
C3912       C  0.69255641  0.93305822  0.05776704    -0.05300
C3913       C  0.70465968  0.93505349  0.08668927    -0.32300
C3914       C  0.69976272  0.91234858  0.10797062     0.36800
H3915       H  0.65862743  0.86544673  0.06462767     0.17100
O3916       O  0.66457143  0.90482196  0.02143275    -0.59800
H3917       H  0.71595742  0.95522926  0.09344118     0.17100
O3918       O  0.70963882  0.91609233  0.13683072    -0.59900
H3919       H  0.69277080  0.92569557  0.14745001     0.44100
H3920       H  0.68136794  0.89846206  0.00852489     0.44100
C3921       C  0.56940409  0.93495868  0.17988858    -0.05000
C3922       C  0.56870472  0.90767019  0.19586722    -0.32400
C3923       C  0.59003264  0.88521136  0.19048183     0.36800
C3924       C  0.61299982  0.89041785  0.16958259    -0.05300
C3925       C  0.61391958  0.91795057  0.15412764    -0.32300
C3926       C  0.59219377  0.93992843  0.15881514     0.36800
H3927       H  0.55088615  0.90328638  0.21165794     0.17100
O3928       O  0.58699591  0.85763143  0.20398474    -0.59800
H3929       H  0.63139579  0.92229782  0.13793766     0.17100
O3930       O  0.59381712  0.96649794  0.14314756    -0.59900
H3931       H  0.58405745  0.96266241  0.12357281     0.44100
H3932       H  0.59011713  0.86093453  0.22573895     0.44100
C3933       C  0.65204944  0.86243135  0.27672203    -0.05000
C3934       C  0.65049856  0.83382318  0.26432141    -0.32400
C3935       C  0.65137435  0.82976291  0.23332095     0.36800
C3936       C  0.65362048  0.85461390  0.21382286    -0.05300
C3937       C  0.65674545  0.88316538  0.22607525    -0.32300
C3938       C  0.65624353  0.88722839  0.25728746     0.36800
H3939       H  0.64889274  0.81429790  0.27869202     0.17100
O3940       O  0.64894081  0.80141684  0.22235595    -0.59800
H3941       H  0.66014017  0.90234872  0.21139199     0.17100
O3942       O  0.66260803  0.91486416  0.26858849    -0.59900
H3943       H  0.64869490  0.92913621  0.25844146     0.44100
H3944       H  0.66870007  0.79186831  0.22591620     0.44100
C3945       C  0.61127532  0.84011637  0.39260938    -0.01200
C3946       C  0.58815469  0.81983919  0.38702715    -0.32400
C3947       C  0.56756619  0.81225452  0.40944747     0.36800
C3948       C  0.56929001  0.82579519  0.43774800    -0.05300
C3949       C  0.59250424  0.84589625  0.44343130    -0.32300
C3950       C  0.61349211  0.85291339  0.42125080     0.36800
H3951       H  0.58543970  0.81048024  0.36499561     0.17100
O3952       O  0.54469749  0.79315461  0.40282822    -0.59800
H3953       H  0.59441124  0.85622020  0.46521302     0.17100
O3954       O  0.63662675  0.87161769  0.42808661    -0.59900
H3955       H  0.62773767  0.89198213  0.42864530     0.44100
H3956       H  0.55360161  0.77274844  0.40435811     0.44100
C3957       C  0.61198702  0.90590338  0.31332401    -0.05000
C3958       C  0.61902424  0.93640262  0.31167928    -0.32400
C3959       C  0.59696765  0.95788275  0.30539521     0.36800
C3960       C  0.56710430  0.94911485  0.30216921    -0.05300
C3961       C  0.56007642  0.91853758  0.30270189    -0.32300
C3962       C  0.58241119  0.89691009  0.30808386     0.36800
H3963       H  0.64162570  0.94365462  0.31597069     0.17100
O3964       O  0.60440914  0.98759972  0.30479866    -0.59800
H3965       H  0.53704180  0.91156534  0.30069667     0.17100
O3966       O  0.57486079  0.86725108  0.31003614    -0.59900
H3967       H  0.56952261  0.86373756  0.33136170     0.44100
H3968       H  0.60910731  0.99217361  0.28350874     0.44100
C3969       C  0.68275692  0.90902367  0.38695146    -0.05000
C3970       C  0.67050579  0.93795247  0.38477905    -0.32400
C3971       C  0.67490530  0.95879688  0.40744356     0.36800
C3972       C  0.69201195  0.95105557  0.43293996    -0.05300
C3973       C  0.70579208  0.92274731  0.43450485    -0.32300
C3974       C  0.70097287  0.90160043  0.41188950     0.36800
H3975       H  0.65627878  0.94405264  0.36601788     0.17100
O3976       O  0.66137799  0.98634780  0.40498507    -0.59800
H3977       H  0.71861544  0.91629055  0.45424437     0.17100
O3978       O  0.71132659  0.87289336  0.41600056    -0.59900
H3979       H  0.73322854  0.87408649  0.41342281     0.44100
H3980       H  0.67714136  0.00003106  0.39756612     0.44100
C3981       C  0.64780355  0.65525214  0.29477605    -0.05000
C3982       C  0.67300812  0.64396323  0.28013565    -0.32400
C3983       C  0.67325708  0.64069132  0.24901545     0.36800
C3984       C  0.64779494  0.64825508  0.23202257    -0.05300
C3985       C  0.62228128  0.65915934  0.24655129    -0.32300
C3986       C  0.62218412  0.66272129  0.27781570     0.36800
H3987       H  0.69202901  0.63619145  0.29297879     0.17100
O3988       O  0.69797597  0.62869420  0.23553046    -0.59800
H3989       H  0.60264792  0.66537527  0.23357540     0.17100
O3990       O  0.59738823  0.67428996  0.29149282    -0.59900
H3991       H  0.58302104  0.65753329  0.29265132     0.44100
H3992       H  0.71221110  0.64548568  0.23344671     0.44100
C3993       C  0.64781795  0.79609739  0.35560840    -0.05000
C3994       C  0.66405069  0.78180614  0.37869797    -0.32400
C3995       C  0.66420624  0.75050805  0.38151727     0.36800
C3996       C  0.64793812  0.73314712  0.36114913    -0.05300
C3997       C  0.63125032  0.74738921  0.33842176    -0.32300
C3998       C  0.63072887  0.77873942  0.33582534     0.36800
H3999       H  0.67691809  0.79495591  0.39431237     0.17100
O4000       O  0.68054668  0.73702760  0.40404001    -0.59800
H4001       H  0.61846073  0.73417084  0.32279168     0.17100
O4002       O  0.61349564  0.79230629  0.31397902    -0.59900
H4003       H  0.59260303  0.78653096  0.31833438     0.44100
H4004       H  0.70062856  0.73377797  0.39535059     0.44100
C4005       C  0.60930275  0.61854932  0.33971884    -0.05000
C4006       C  0.58177018  0.61880458  0.35470495    -0.32400
C4007       C  0.56040229  0.59670604  0.34969124     0.36800
C4008       C  0.56580784  0.57423079  0.32860946    -0.05300
C4009       C  0.59312523  0.57379315  0.31342549    -0.32300
C4010       C  0.61515344  0.59525448  0.31935251     0.36800
H4011       H  0.57688836  0.63601527  0.37082961     0.17100
O4012       O  0.53395373  0.59767295  0.36503942    -0.59800
H4013       H  0.59793815  0.55594513  0.29791688     0.17100
O4014       O  0.64307260  0.59159513  0.30739257    -0.59900
H4015       H  0.64015306  0.59060478  0.28534019     0.44100
H4016       H  0.53791491  0.58678105  0.38419084     0.44100
C4017       C  0.69343012  0.57678122  0.45033515    -0.05000
C4018       C  0.70757128  0.57661322  0.42230996    -0.32400
C4019       C  0.70217559  0.59964006  0.40107444     0.36800
C4020       C  0.68276745  0.62348970  0.40815029    -0.05300
C4021       C  0.66991196  0.62417732  0.43677584    -0.32300
C4022       C  0.67473984  0.60100261  0.45757142     0.36800
H4023       H  0.72099974  0.55749783  0.41609969     0.17100
O4024       O  0.71342482  0.59703104  0.37264901    -0.59800
H4025       H  0.65482051  0.64210146  0.44264071     0.17100
O4026       O  0.66062700  0.60195112  0.48481606    -0.59900
H4027       H  0.63984214  0.59555963  0.48080677     0.44100
H4028       H  0.73526488  0.59983526  0.37474684     0.44100
C4029       C  0.61087522  0.69574711  0.40489201    -0.05000
C4030       C  0.61916264  0.69671899  0.43524721    -0.32400
C4031       C  0.59760452  0.70075871  0.45758012     0.36800
C4032       C  0.56738340  0.70436834  0.44957727    -0.05300
C4033       C  0.55940729  0.70572054  0.41911722    -0.32300
C4034       C  0.58099097  0.70143547  0.39673996     0.36800
H4035       H  0.64220075  0.69289543  0.44172323     0.17100
O4036       O  0.60605565  0.69981153  0.48720541    -0.59800
H4037       H  0.53617115  0.70840682  0.41272763     0.17100
O4038       O  0.57269988  0.70190407  0.36703617    -0.59900
H4039       H  0.55804213  0.68556059  0.36469915     0.44100
H4040       H  0.60548339  0.67834919  0.49311824     0.44100
C4041       C  0.85604104  0.64573762  0.22922520    -0.05000
C4042       C  0.87006874  0.67088085  0.24116212    -0.32400
C4043       C  0.86955776  0.67614776  0.27207101     0.36800
C4044       C  0.85664187  0.65497770  0.29153460    -0.05300
C4045       C  0.84302112  0.62952564  0.27971314    -0.32300
C4046       C  0.84184248  0.62532474  0.24864643     0.36800
H4047       H  0.88149694  0.68644909  0.22651829     0.17100
O4048       O  0.88158712  0.70195892  0.28318740    -0.59800
H4049       H  0.83254734  0.61338873  0.29459292     0.17100
O4050       O  0.82620359  0.60166953  0.23748229    -0.59900
H4051       H  0.80563249  0.60937975  0.23418229     0.44100
H4052       H  0.90306934  0.70145868  0.27796657     0.44100
C4053       C  0.72213171  0.66360864  0.36548211    -0.05000
C4054       C  0.73738639  0.66211016  0.33809222    -0.32400
C4055       C  0.76863630  0.66153346  0.33695752     0.36800
C4056       C  0.78552289  0.66309721  0.36359443    -0.05300
C4057       C  0.77038560  0.66625123  0.39094978    -0.32300
C4058       C  0.73904276  0.66680080  0.39201422     0.36800
H4059       H  0.72519123  0.66106030  0.31730265     0.17100
O4060       O  0.78238414  0.65786269  0.30979011    -0.59800
H4061       H  0.78290014  0.66883703  0.41158376     0.17100
O4062       O  0.72522207  0.67118467  0.41899822    -0.59900
H4063       H  0.72732736  0.69282636  0.42304822     0.44100
H4064       H  0.77908140  0.67692254  0.29857154     0.44100
C4065       C  0.82616910  0.62386211  0.40495342    -0.05000
C4066       C  0.80910998  0.59916901  0.39625863    -0.32400
C4067       C  0.80364919  0.57545404  0.41656249     0.36800
C4068       C  0.81567293  0.57628604  0.44578134    -0.05300
C4069       C  0.83165159  0.60152374  0.45473721    -0.32300
C4070       C  0.83683592  0.62521355  0.43463693     0.36800
H4071       H  0.80139112  0.59751904  0.37327113     0.17100
O4072       O  0.78937197  0.55024225  0.40687484    -0.59800
H4073       H  0.84079588  0.60255054  0.47725259     0.17100
O4074       O  0.85240869  0.64966725  0.44416435    -0.59900
H4075       H  0.87338147  0.64276069  0.44651248     0.44100
H4076       H  0.76984620  0.55713967  0.39882711     0.44100
C4077       C  0.93839985  0.57282240  0.32327663    -0.05000
C4078       C  0.94052113  0.60071419  0.30872216    -0.32400
C4079       C  0.91993286  0.62367268  0.31471738     0.36800
C4080       C  0.89613357  0.61835838  0.33465401    -0.05300
C4081       C  0.89387536  0.59030716  0.34884955    -0.32300
C4082       C  0.91485669  0.56772170  0.34352196     0.36800
H4083       H  0.95914068  0.60527847  0.29394634     0.17100
O4084       O  0.92493350  0.65189545  0.30346410    -0.59800
H4085       H  0.87603574  0.58605981  0.36466418     0.17100
O4086       O  0.91266564  0.54098938  0.35884216    -0.59900
H4087       H  0.89504993  0.53088528  0.35016019     0.44100
H4088       H  0.92634669  0.64976157  0.28135382     0.44100
C4089       C  0.94126689  0.70260822  0.44468144    -0.05000
C4090       C  0.94992757  0.69355371  0.41602853    -0.32400
C4091       C  0.92873391  0.68978146  0.39341963     0.36800
C4092       C  0.89844935  0.69511037  0.39933154    -0.05300
C4093       C  0.88986278  0.70605524  0.42737049    -0.32300
C4094       C  0.91114876  0.70957049  0.45027850     0.36800
H4095       H  0.97305911  0.68794733  0.41163337     0.17100
O4096       O  0.93752314  0.67872766  0.36628370    -0.59800
H4097       H  0.86644276  0.70967147  0.43217874     0.17100
O4098       O  0.90210887  0.71671784  0.47872382    -0.59900
H4099       H  0.89203085  0.73646649  0.47691576     0.44100
H4100       H  0.94244175  0.69658967  0.35387149     0.44100
C4101       C  0.86126330  0.85547212  0.21350289    -0.05000
C4102       C  0.84515758  0.87925870  0.22588482    -0.32400
C4103       C  0.84354550  0.88247797  0.25705770     0.36800
C4104       C  0.85828334  0.86183450  0.27609233    -0.05300
C4105       C  0.87505336  0.83859775  0.26373110    -0.32300
C4106       C  0.87720978  0.83571502  0.23257056     0.36800
H4107       H  0.83357057  0.89513338  0.21134288     0.17100
O4108       O  0.82738190  0.90566478  0.26874789    -0.59800
H4109       H  0.88700237  0.82305402  0.27827501     0.17100
O4110       O  0.89527360  0.81391619  0.22085989    -0.59900
H4111       H  0.91577578  0.81836981  0.22788294     0.44100
H4112       H  0.80670829  0.89802700  0.27037164     0.44100
C4113       C  0.78586349  0.86722577  0.34717204    -0.05000
C4114       C  0.77038890  0.84031393  0.35112225    -0.32400
C4115       C  0.73919731  0.83978938  0.35219208     0.36800
C4116       C  0.72271754  0.86653732  0.34887484    -0.05300
C4117       C  0.73806070  0.89339677  0.34347392    -0.32300
C4118       C  0.76935810  0.89384103  0.34234681     0.36800
H4119       H  0.78240736  0.81952698  0.35389213     0.17100
O4120       O  0.72510318  0.81321464  0.35812557    -0.59800
H4121       H  0.72573013  0.91403546  0.33969001     0.17100
O4122       O  0.78354029  0.92028302  0.33610045    -0.59900
H4123       H  0.78317621  0.92228989  0.31391942     0.44100
H4124       H  0.72766512  0.80108254  0.33983090     0.44100
C4125       C  0.85924937  0.73334856  0.35796746    -0.05000
C4126       C  0.88427305  0.74795304  0.34603466    -0.32400
C4127       C  0.88489110  0.77933786  0.34371448     0.36800
C4128       C  0.86045933  0.79624545  0.35394144    -0.05300
C4129       C  0.83604030  0.78151014  0.36678502    -0.32300
C4130       C  0.83508787  0.75030379  0.36840547     0.36800
H4131       H  0.90309143  0.73499964  0.33811442     0.17100
O4132       O  0.90947098  0.79334901  0.33197272    -0.59800
H4133       H  0.81799259  0.79424998  0.37634374     0.17100
O4134       O  0.81095629  0.73655758  0.38130432    -0.59900
H4135       H  0.79604969  0.73481348  0.36492304     0.44100
H4136       H  0.91062416  0.78693022  0.31079791     0.44100
C4137       C  0.81454116  0.95133033  0.43126194    -0.05000
C4138       C  0.79895072  0.92416924  0.43078493    -0.32400
C4139       C  0.80513678  0.90276832  0.40876811     0.36800
C4140       C  0.82603404  0.90911374  0.38589693    -0.05300
C4141       C  0.84000022  0.93712972  0.38557834    -0.32300
C4142       C  0.83468667  0.95792241  0.40801162     0.36800
H4143       H  0.78363012  0.91861437  0.44872896     0.17100
O4144       O  0.79221820  0.87513203  0.41116350    -0.59800
H4145       H  0.85611762  0.94265189  0.36845824     0.17100
O4146       O  0.85030211  0.98424158  0.40767147    -0.59900
H4147       H  0.83840159  0.99814032  0.39479411     0.44100
H4148       H  0.80761259  0.86199839  0.42061632     0.44100
C4149       C  0.90113407  0.84009399  0.38901253    -0.05000
C4150       C  0.89687022  0.81609445  0.40937198    -0.32400
C4151       C  0.91883421  0.80812715  0.43058570     0.36800
C4152       C  0.94496239  0.82511858  0.43297485    -0.05300
C4153       C  0.94937616  0.84898565  0.41288352    -0.32300
C4154       C  0.92805578  0.85639019  0.39094048     0.36800
H4155       H  0.87616374  0.80385334  0.40960940     0.17100
O4156       O  0.91381747  0.78465060  0.44987318    -0.59800
H4157       H  0.96960386  0.86209633  0.41418005     0.17100
O4158       O  0.93436348  0.87904651  0.37095141    -0.59900
H4159       H  0.93562141  0.89752589  0.38297424     0.44100
H4160       H  0.92527569  0.76780878  0.44130791     0.44100
C4161       C  0.89517154  0.90592348  0.31104772    -0.05000
C4162       C  0.88786281  0.93640382  0.31134727    -0.32400
C4163       C  0.90962811  0.95796825  0.30563416     0.36800
C4164       C  0.93914447  0.94905575  0.29989693    -0.05300
C4165       C  0.94599391  0.91855628  0.29725274    -0.32300
C4166       C  0.92394241  0.89691489  0.30225583     0.36800
H4167       H  0.86554136  0.94349387  0.31729777     0.17100
O4168       O  0.90248311  0.98769322  0.30822503    -0.59800
H4169       H  0.96872434  0.91150845  0.29285332     0.17100
O4170       O  0.93085693  0.86711654  0.29953650    -0.59900
H4171       H  0.94218954  0.86150784  0.31790105     0.44100
H4172       H  0.89525571  0.99401602  0.28803690     0.44100
C4173       C  0.83885283  0.84517577  0.82871590     0.46000
H4174       H  0.82499721  0.82935135  0.81571387    -0.03100
C4175       C  0.87161944  0.88223501  0.85851154     0.46000
H4176       H  0.88535048  0.89827683  0.87126115    -0.03100
C4177       C  0.85899758  0.86477170  0.80871916    -0.16800
C4178       C  0.82052702  0.86753418  0.84739915    -0.16500
C4179       C  0.86020929  0.82961242  0.85127511    -0.16900
C4180       C  0.87600229  0.88445436  0.82442402    -0.16900
C4181       C  0.83797736  0.88682958  0.86363896    -0.16400
C4182       C  0.87798946  0.84917241  0.86680483    -0.16800
C4183       C  0.86994804  0.64980837  0.87738304     0.46000
H4184       H  0.88429749  0.63634382  0.89291465    -0.03100
C4185       C  0.83658952  0.68160625  0.84113722     0.46000
H4186       H  0.82254677  0.69537611  0.82561190    -0.03100
C4187       C  0.83634609  0.64527790  0.88236683    -0.16800
C4188       C  0.87488925  0.68354237  0.87993236    -0.16500
C4189       C  0.87523869  0.64273890  0.84422542    -0.16900
C4190       C  0.81852725  0.66192861  0.86321981    -0.16900
C4191       C  0.85734544  0.70042347  0.86100987    -0.16400
C4192       C  0.85754273  0.65950065  0.82507673    -0.16800
C4193       C  0.66958319  0.68020987  0.84382646     0.46000
H4194       H  0.68311390  0.69343619  0.82763699    -0.03100
C4195       C  0.63730901  0.64996200  0.88158069     0.46000
H4196       H  0.62347204  0.63708695  0.89778002    -0.03100
C4197       C  0.64833301  0.65777414  0.82875870    -0.16800
C4198       C  0.68842452  0.66138323  0.86628217    -0.16500
C4199       C  0.64940321  0.69986141  0.86354008    -0.16900
C4200       C  0.63120172  0.64169589  0.84876147    -0.16900
C4201       C  0.67110365  0.64511231  0.88608869    -0.16400
C4202       C  0.63240844  0.68384710  0.88334675    -0.16800
C4203       C  0.64019604  0.88174281  0.86065453     0.46000
H4204       H  0.62607905  0.89796102  0.87295012    -0.03100
C4205       C  0.67261097  0.84394356  0.83119930     0.46000
H4206       H  0.68639753  0.82779193  0.81848109    -0.03100
C4207       C  0.67378551  0.88551931  0.86607277    -0.16800
C4208       C  0.63366605  0.84892795  0.86900203    -0.16500
C4209       C  0.63615836  0.88425791  0.82649855    -0.16900
C4210       C  0.69109950  0.86560388  0.85045205    -0.16900
C4211       C  0.65044640  0.82891531  0.85299549    -0.16400
C4212       C  0.65349469  0.86452007  0.81077934    -0.16800
C4213       C  0.67398741  0.82809084  0.66552346     0.46000
H4214       H  0.68903527  0.81506468  0.68073985    -0.03100
C4215       C  0.63897755  0.85845366  0.62973164     0.46000
H4216       H  0.62397207  0.87131890  0.61430310    -0.03100
C4217       C  0.65321453  0.85016781  0.68187351    -0.16800
C4218       C  0.69078355  0.84750729  0.64246186    -0.16500
C4219       C  0.65317367  0.80847392  0.64669977    -0.16900
C4220       C  0.63476308  0.86631330  0.66283835    -0.16900
C4221       C  0.67216395  0.86351768  0.62363327    -0.16400
C4222       C  0.63456460  0.82456486  0.62809032    -0.16800
C4223       C  0.87085268  0.85891336  0.62692610     0.46000
H4224       H  0.88509730  0.87087257  0.61041363    -0.03100
C4225       C  0.83810016  0.83011211  0.66535535     0.46000
H4226       H  0.82367809  0.81820632  0.68166679    -0.03100
C4227       C  0.83731125  0.86475494  0.62260437    -0.16800
C4228       C  0.87453513  0.82476939  0.62554738    -0.16500
C4229       C  0.87753156  0.86737214  0.65960806    -0.16900
C4230       C  0.81993591  0.84963128  0.64297418    -0.16900
C4231       C  0.85706123  0.80915533  0.64561071    -0.16400
C4232       C  0.86050341  0.85173540  0.67996887    -0.16800
C4233       C  0.63672158  0.62829647  0.64978682     0.46000
H4234       H  0.62174314  0.61356661  0.63673711    -0.03100
C4235       C  0.67128619  0.66281753  0.68069707     0.46000
H4236       H  0.68601076  0.67764366  0.69394598    -0.03100
C4237       C  0.67001314  0.62131521  0.64556644    -0.16800
C4238       C  0.63321711  0.66166162  0.64152282    -0.16500
C4239       C  0.63138191  0.62641132  0.68373188    -0.16900
C4240       C  0.68826112  0.63967686  0.66181193    -0.16900
C4241       C  0.65124883  0.67989078  0.65817397    -0.16400
C4242       C  0.64963096  0.64444511  0.70006590    -0.16800
C4243       C  0.83452355  0.66270861  0.67708991     0.46000
H4244       H  0.82018012  0.67800170  0.69025640    -0.03100
C4245       C  0.86767279  0.62613029  0.64698965     0.46000
H4246       H  0.88223083  0.61053126  0.63438545    -0.03100
C4247       C  0.85472798  0.64283376  0.69697638    -0.16800
C4248       C  0.81667880  0.64073216  0.65779274    -0.16500
C4249       C  0.85553409  0.67876866  0.65488635    -0.16900
C4250       C  0.87190585  0.62337705  0.68103860    -0.16900
C4251       C  0.83419466  0.62150160  0.64161585    -0.16400
C4252       C  0.87336944  0.65923439  0.63915620    -0.16800
O4253       O  0.53367655  0.53242950  0.67660937    -0.71300
O4254       O  0.97618255  0.97300371  0.66302454    -0.71500
O4255       O  0.97397843  0.53222170  0.67512228    -0.71400
O4256       O  0.53629197  0.97289920  0.66467386    -0.71400
O4257       O  0.53688618  0.96392170  0.71269235    -0.71300
O4258       O  0.97245941  0.52215880  0.72297160    -0.71400
O4259       O  0.97690815  0.96305961  0.71085333    -0.71300
O4260       O  0.53242759  0.52405300  0.72475589    -0.71500
V4261       V  0.50406446  0.50307244  0.67143112     1.35200
V4262       V  0.50314888  0.49395018  0.71747873     1.35200
C4263       C  0.54277563  0.53860634  0.70260897     0.77900
C4264       C  0.96635008  0.95797016  0.68501422     0.78000
C4265       C  0.96322641  0.53737216  0.70065058     0.77900
C4266       C  0.54705020  0.95852351  0.68686409     0.77800
O4267       O  0.53528297  0.97766781  0.83045221    -0.71300
O4268       O  0.97250897  0.53541683  0.84198831    -0.71500
O4269       O  0.97576502  0.97584497  0.82967059    -0.71400
O4270       O  0.53132748  0.53628009  0.84548166    -0.71400
O4271       O  0.53479241  0.54483860  0.79750098    -0.71300
O4272       O  0.97476070  0.98674636  0.78197233    -0.71400
O4273       O  0.97518229  0.54619234  0.79441689    -0.71300
O4274       O  0.53491090  0.98510445  0.78213720    -0.71500
V4275       V  0.50264682  0.50634385  0.83728795     1.35200
V4276       V  0.50476473  0.51555373  0.79128359     1.35200
C4277       C  0.54538968  0.97138602  0.80489535     0.77900
C4278       C  0.96337509  0.55076217  0.81976559     0.78000
C4279       C  0.96512799  0.97138301  0.80387430     0.77900
C4280       C  0.54282042  0.55081227  0.82399234     0.77800
O4281       O  0.71751711  0.97702883  0.97250692    -0.71300
O4282       O  0.71793500  0.53337586  0.53706695    -0.71500
O4283       O  0.71644328  0.97191064  0.53353895    -0.71400
O4284       O  0.71767692  0.53729981  0.97779976    -0.71400
O4285       O  0.66949933  0.54050161  0.98247285    -0.71300
O4286       O  0.66861763  0.96768650  0.52646121    -0.71400
O4287       O  0.67013644  0.52617964  0.54026332    -0.71300
O4288       O  0.66960422  0.98295929  0.96705243    -0.71500
V4289       V  0.71864339  0.50478818  0.50547985     1.35200
V4290       V  0.67230869  0.50406061  0.50422603     1.35200
C4291       C  0.69377796  0.97127338  0.95829343     0.77900
C4292       C  0.69343824  0.53848037  0.55022143     0.78000
C4293       C  0.69239144  0.95804292  0.53851893     0.77900
C4294       C  0.69340149  0.55075225  0.97170445     0.77800
O4295       O  0.97271081  0.66459520  0.53356506    -0.71300
O4296       O  0.53424271  0.67684870  0.97814018    -0.71500
O4297       O  0.53382602  0.66503114  0.53806366    -0.71400
O4298       O  0.97595726  0.67647296  0.97500060    -0.71400
O4299       O  0.97117735  0.72377857  0.98482275    -0.71300
O4300       O  0.53252526  0.71299520  0.54543221    -0.71400
O4301       O  0.53104299  0.72501781  0.98375570    -0.71300
O4302       O  0.97276839  0.71186992  0.54424311    -0.71500
V4303       V  0.50431325  0.67008830  0.50792888     1.35200
V4304       V  0.50242194  0.71611710  0.51528251     1.35200
C4305       C  0.96243699  0.68590397  0.54885757     0.77900
C4306       C  0.54285917  0.70278163  0.97097458     0.78000
C4307       C  0.54362088  0.68757820  0.55167740     0.77900
C4308       C  0.96359629  0.70140671  0.96950572     0.77800
O4309       O  0.83698993  0.98349217  0.96658533    -0.71300
O4310       O  0.83780913  0.52662630  0.53738360    -0.71500
O4311       O  0.83615931  0.96862181  0.52581851    -0.71400
O4312       O  0.83680684  0.54149149  0.97908967    -0.71400
O4313       O  0.78913460  0.53627679  0.97176605    -0.71300
O4314       O  0.78823278  0.97313401  0.53183136    -0.71400
O4315       O  0.78996168  0.53330634  0.53242989    -0.71300
O4316       O  0.78927936  0.97634520  0.97089466    -0.71500
V4317       V  0.83727718  0.50451409  0.50148837     1.35200
V4318       V  0.79091589  0.50474187  0.50092476     1.35200
C4319       C  0.81341662  0.97143015  0.95703014     0.77900
C4320       C  0.81389073  0.53829951  0.54670172     0.78000
C4321       C  0.81239932  0.95945310  0.53786376     0.77900
C4322       C  0.81299065  0.55037444  0.96647327     0.77800
O4323       O  0.97806900  0.84298313  0.97056792    -0.71300
O4324       O  0.53157449  0.83150927  0.53604644    -0.71500
O4325       O  0.53679919  0.84328336  0.97662110    -0.71400
O4326       O  0.97205873  0.83307898  0.52953348    -0.71400
O4327       O  0.97633422  0.78471394  0.52636156    -0.71300
O4328       O  0.53434372  0.79640351  0.96469546    -0.71400
O4329       O  0.53694273  0.78462898  0.52478704    -0.71300
O4330       O  0.97425085  0.79472546  0.96671423    -0.71500
V4331       V  0.50490933  0.83607419  0.50347203     1.35200
V4332       V  0.50562262  0.79020591  0.49579816     1.35200
C4333       C  0.96641447  0.82072478  0.95805938     0.77900
C4334       C  0.54366486  0.80642680  0.54136642     0.78000
C4335       C  0.54580313  0.82195901  0.96058783     0.77900
C4336       C  0.96402858  0.80726849  0.53795363     0.77800
C4337       C  0.82363003  0.59856062  0.62011522    -0.05000
C4338       C  0.83738714  0.57028124  0.62102939    -0.32400
C4339       C  0.83325933  0.54996088  0.59785906     0.36800
C4340       C  0.81455383  0.55743620  0.57341397    -0.05300
C4341       C  0.79893503  0.58472013  0.57345173    -0.32300
C4342       C  0.80357209  0.60545286  0.59642390     0.36800
H4343       H  0.85258457  0.56438403  0.63913972     0.17100
O4344       O  0.84782162  0.52286344  0.59916613    -0.59800
H4345       H  0.78467829  0.59084852  0.55462761     0.17100
O4346       O  0.79080255  0.63333650  0.59383861    -0.59900
H4347       H  0.76901448  0.63012147  0.59593084     0.44100
H4348       H  0.86845081  0.52701665  0.59237065     0.44100
C4349       C  0.89597688  0.66746925  0.61614095    -0.05000
C4350       C  0.89543170  0.65267990  0.58856387    -0.32400
C4351       C  0.91667442  0.65882300  0.56646616     0.36800
C4352       C  0.93902740  0.68024024  0.57157042    -0.05300
C4353       C  0.93953566  0.69524892  0.59907814    -0.32300
C4354       C  0.91861087  0.68853821  0.62153100     0.36800
H4355       H  0.87828084  0.63632695  0.58404472     0.17100
O4356       O  0.91526799  0.64381111  0.53985260    -0.59800
H4357       H  0.95686510  0.71140058  0.60358825     0.17100
O4358       O  0.92102370  0.70204224  0.64886577    -0.59900
H4359       H  0.93325158  0.68811405  0.66139067     0.44100
H4360       H  0.90416091  0.65735132  0.52591128     0.44100
C4361       C  0.89449524  0.60280713  0.69389785    -0.05000
C4362       C  0.92436328  0.61167362  0.69317400    -0.32400
C4363       C  0.94723257  0.59063997  0.69748751     0.36800
C4364       C  0.94023862  0.56054568  0.70350712    -0.05300
C4365       C  0.91037638  0.55200268  0.70618276    -0.32300
C4366       C  0.88738931  0.57288950  0.70093061     0.36800
H4367       H  0.92996753  0.63450450  0.68706487     0.17100
O4368       O  0.97634683  0.59933080  0.69430655    -0.59800
H4369       H  0.90487141  0.52865795  0.70983850     0.17100
O4370       O  0.85837910  0.56331514  0.69932533    -0.59900
H4371       H  0.85443406  0.55264809  0.71855363     0.44100
H4372       H  0.97936290  0.60169978  0.67236654     0.44100
C4373       C  0.72118317  0.63913265  0.66064325    -0.05000
C4374       C  0.73615869  0.66573574  0.65370817    -0.32400
C4375       C  0.76725975  0.66641197  0.65260018     0.36800
C4376       C  0.78379765  0.64017371  0.65853664    -0.05300
C4377       C  0.76892629  0.61358094  0.66594462    -0.32300
C4378       C  0.73770644  0.61288817  0.66694341     0.36800
H4379       H  0.72369695  0.68603674  0.64884596     0.17100
O4380       O  0.78128055  0.69238886  0.64416737    -0.59800
H4381       H  0.78156599  0.59344750  0.67130279     0.17100
O4382       O  0.72358892  0.58704315  0.67562945    -0.59900
H4383       H  0.72769331  0.57245327  0.65955986     0.44100
H4384       H  0.78021519  0.70550962  0.66190641     0.44100
C4385       C  0.56789266  0.68387207  0.57379451    -0.05000
C4386       C  0.59037806  0.66276124  0.56828453    -0.32400
C4387       C  0.61279414  0.65703968  0.58943608     0.36800
C4388       C  0.61245399  0.67165116  0.61722065    -0.05300
C4389       C  0.59035140  0.69340454  0.62241046    -0.32300
C4390       C  0.56846272  0.69996689  0.60070501     0.36800
H4391       H  0.59058199  0.65059845  0.54741001     0.17100
O4392       O  0.63469131  0.63665031  0.58286806    -0.59800
H4393       H  0.58897804  0.70428616  0.64376612     0.17100
O4394       O  0.54702366  0.72110487  0.60660028    -0.59900
H4395       H  0.53013861  0.70982919  0.61545120     0.44100
H4396       H  0.65075105  0.64851128  0.57326119     0.44100
C4397       C  0.69147618  0.55852618  0.57631139    -0.05000
C4398       C  0.67520314  0.54938153  0.60162689    -0.32400
C4399       C  0.66964193  0.56920733  0.62510282     0.36800
C4400       C  0.68014682  0.59878431  0.62340987    -0.05300
C4401       C  0.69769096  0.60753213  0.59877477    -0.32300
C4402       C  0.70332636  0.58764107  0.57528272     0.36800
H4403       H  0.66635930  0.52689131  0.60297612     0.17100
O4404       O  0.65440262  0.55936546  0.64993995    -0.59800
H4405       H  0.70568339  0.63030981  0.59697875     0.17100
O4406       O  0.71889856  0.59741797  0.55064855    -0.59900
H4407       H  0.70368820  0.60646031  0.53701221     0.44100
H4408       H  0.63313507  0.55876636  0.64372899     0.44100
C4409       C  0.56432721  0.56300136  0.70600019    -0.05000
C4410       C  0.55639658  0.59124455  0.69438168    -0.32400
C4411       C  0.57799922  0.61307425  0.68936070     0.36800
C4412       C  0.60799439  0.60687902  0.69625288    -0.05300
C4413       C  0.61576181  0.57954695  0.71017172    -0.32300
C4414       C  0.59405758  0.55742440  0.71484953     0.36800
H4415       H  0.53366924  0.59571112  0.68729499     0.17100
O4416       O  0.56986116  0.63996452  0.67643592    -0.59800
H4417       H  0.63895046  0.57450892  0.71519409     0.17100
O4418       O  0.60250155  0.52973862  0.72561426    -0.59900
H4419       H  0.60996516  0.51881693  0.70789943     0.44100
H4420       H  0.56716795  0.63582549  0.65478403     0.44100
C4421       C  0.85565246  0.77565037  0.64795650    -0.05000
C4422       C  0.85366328  0.75823039  0.62195640    -0.32400
C4423       C  0.85376684  0.72680136  0.62350676     0.36800
C4424       C  0.85521765  0.71208116  0.65161092    -0.05300
C4425       C  0.85455019  0.72946268  0.67753152    -0.32300
C4426       C  0.85474822  0.76072862  0.67598867     0.36800
H4427       H  0.85090465  0.76882878  0.60029038     0.17100
O4428       O  0.85015031  0.71080107  0.59768087    -0.59800
H4429       H  0.85366614  0.71892992  0.69936141     0.17100
O4430       O  0.85458428  0.77629059  0.70222323    -0.59900
H4431       H  0.83442488  0.77334368  0.71085055     0.44100
H4432       H  0.86741575  0.71598015  0.58479631     0.44100
C4433       C  0.94125412  0.80414269  0.56125919    -0.05000
C4434       C  0.94930946  0.80859560  0.59128458    -0.32400
C4435       C  0.92735720  0.81247051  0.61319013     0.36800
C4436       C  0.89701641  0.81189884  0.60509062    -0.05300
C4437       C  0.88910675  0.80575409  0.57529624    -0.32300
C4438       C  0.91102390  0.80151533  0.55347186     0.36800
H4439       H  0.97261437  0.81077397  0.59742386     0.17100
O4440       O  0.93569988  0.81858353  0.64210637    -0.59800
H4441       H  0.86590036  0.80580260  0.56854907     0.17100
O4442       O  0.90267653  0.79738436  0.52418655    -0.59900
H4443       H  0.90154206  0.77538277  0.52188512     0.44100
H4444       H  0.93962827  0.84039550  0.64224839     0.44100
C4445       C  0.82613659  0.88658968  0.59965063    -0.05000
C4446       C  0.80858513  0.91120707  0.60822637    -0.32400
C4447       C  0.80230922  0.93459740  0.58776358     0.36800
C4448       C  0.81368684  0.93343829  0.55839167    -0.05300
C4449       C  0.83003947  0.90832317  0.54957789    -0.32300
C4450       C  0.83606934  0.88497526  0.56982156     0.36800
H4451       H  0.80127714  0.91314460  0.63126038     0.17100
O4452       O  0.78778581  0.95970072  0.59756081    -0.59800
H4453       H  0.83892466  0.90717528  0.52703509     0.17100
O4454       O  0.85257900  0.86106306  0.56040468    -0.59900
H4455       H  0.83830124  0.84843206  0.54926230     0.44100
H4456       H  0.76706489  0.95786232  0.59002061     0.44100
C4457       C  0.94294678  0.93525521  0.68010979    -0.05000
C4458       C  0.92173402  0.94003818  0.65725861    -0.32400
C4459       C  0.90001997  0.91853077  0.65096823     0.36800
C4460       C  0.89950837  0.89124227  0.66726339    -0.05300
C4461       C  0.92088551  0.88652178  0.69005320    -0.32300
C4462       C  0.94199830  0.90845219  0.69696216     0.36800
H4463       H  0.92178016  0.96074510  0.64432487     0.17100
O4464       O  0.87867360  0.92495782  0.62963792    -0.59800
H4465       H  0.92192461  0.86548573  0.70208498     0.17100
O4466       O  0.96256990  0.90276714  0.71919340    -0.59900
H4467       H  0.95206665  0.90708257  0.73792537     0.44100
H4468       H  0.88929669  0.92510862  0.61015761     0.44100
C4469       C  0.65296179  0.77554107  0.64955269    -0.05000
C4470       C  0.63315360  0.76174614  0.66951600    -0.32400
C4471       C  0.63340407  0.73058388  0.67346573     0.36800
C4472       C  0.65189112  0.71285549  0.65540549    -0.05300
C4473       C  0.67167933  0.72664244  0.63533687    -0.32300
C4474       C  0.67303810  0.75789731  0.63315068     0.36800
H4475       H  0.61771331  0.77517142  0.68231058     0.17100
O4476       O  0.61613599  0.71749658  0.69535551    -0.59800
H4477       H  0.68629754  0.71317000  0.62164895     0.17100
O4478       O  0.69361380  0.77097487  0.61452380    -0.59900
H4479       H  0.71048051  0.77650396  0.62778230     0.44100
H4480       H  0.59536312  0.72441073  0.69159944     0.44100
C4481       C  0.72383248  0.84877748  0.64183585    -0.05000
C4482       C  0.73927857  0.85583935  0.66819218    -0.32400
C4483       C  0.77051224  0.85645250  0.66876610     0.36800
C4484       C  0.78678397  0.85003621  0.64267552    -0.05300
C4485       C  0.77131499  0.84283684  0.61630077    -0.32300
C4486       C  0.74003133  0.84224599  0.61570649     0.36800
H4487       H  0.72703074  0.86109590  0.68838577     0.17100
O4488       O  0.78489429  0.86439170  0.69463369    -0.59800
H4489       H  0.78355784  0.83710266  0.59624718     0.17100
O4490       O  0.72552580  0.83357999  0.59010156    -0.59900
H4491       H  0.72933567  0.84962957  0.57503896     0.44100
H4492       H  0.78379928  0.84656606  0.70806457     0.44100
C4493       C  0.61044740  0.81224890  0.60928346    -0.05000
C4494       C  0.58128863  0.82191658  0.61495643    -0.32400
C4495       C  0.55874364  0.81803772  0.59369807     0.36800
C4496       C  0.56506734  0.80373807  0.56645635    -0.05300
C4497       C  0.59358698  0.79154542  0.56190850    -0.32300
C4498       C  0.61645748  0.79622003  0.58294726     0.36800
H4499       H  0.57642281  0.83432642  0.63511296     0.17100
O4500       O  0.53074180  0.82921851  0.59925279    -0.59800
H4501       H  0.59880164  0.78074571  0.54093621     0.17100
O4502       O  0.64493646  0.78723078  0.57635631    -0.59900
H4503       H  0.65435847  0.80480778  0.56653153     0.44100
H4504       H  0.53216079  0.85111026  0.59564310     0.44100
C4505       C  0.68160839  0.88580896  0.60090220    -0.05000
C4506       C  0.67075247  0.88334384  0.57150519    -0.32400
C4507       C  0.67555967  0.90616379  0.55040115     0.36800
C4508       C  0.69139951  0.93187699  0.55866390    -0.05300
C4509       C  0.70307000  0.93397397  0.58776139    -0.32300
C4510       C  0.69790182  0.91131513  0.60902454     0.36800
H4511       H  0.65777727  0.86402178  0.56518125     0.17100
O4512       O  0.66377761  0.90365800  0.52208666    -0.59800
H4513       H  0.71430393  0.95416239  0.59461227     0.17100
O4514       O  0.70701751  0.91527601  0.63810457    -0.59900
H4515       H  0.69007657  0.92547344  0.64805092     0.44100
H4516       H  0.68007704  0.89508511  0.50984441     0.44100
C4517       C  0.57070984  0.93579709  0.68243400    -0.05000
C4518       C  0.57075196  0.90914931  0.69949884    -0.32400
C4519       C  0.59160203  0.88627916  0.69386642     0.36800
C4520       C  0.61348135  0.89041742  0.67155023    -0.05300
C4521       C  0.61385272  0.91746113  0.65517490    -0.32300
C4522       C  0.59253016  0.93981342  0.66013133     0.36800
H4523       H  0.55372400  0.90547086  0.71631763     0.17100
O4524       O  0.58891450  0.85922880  0.70849966    -0.59800
H4525       H  0.63051811  0.92111879  0.63798701     0.17100
O4526       O  0.59357171  0.96579429  0.64342335    -0.59900
H4527       H  0.58437533  0.96085321  0.62383813     0.44100
H4528       H  0.59216710  0.86340873  0.73007348     0.44100
C4529       C  0.65399011  0.86178089  0.77756716    -0.05000
C4530       C  0.65050538  0.83337719  0.76520983    -0.32400
C4531       C  0.65064013  0.82935766  0.73424272     0.36800
C4532       C  0.65454767  0.85398841  0.71481923    -0.05300
C4533       C  0.65987923  0.88224024  0.72699886    -0.32300
C4534       C  0.65985467  0.88626454  0.75823221     0.36800
H4535       H  0.64782810  0.81402001  0.77956338     0.17100
O4536       O  0.64556566  0.80140835  0.72320323    -0.59800
H4537       H  0.66441815  0.90112845  0.71225647     0.17100
O4538       O  0.66813539  0.91332698  0.76970286    -0.59900
H4539       H  0.65539737  0.92862151  0.75949734     0.44100
H4540       H  0.66477532  0.79047517  0.72556230     0.44100
C4541       C  0.61196023  0.84076698  0.89305009    -0.01200
C4542       C  0.58957372  0.81957222  0.88780827    -0.32400
C4543       C  0.56854362  0.81239811  0.90992301     0.36800
C4544       C  0.56900220  0.82722195  0.93759614    -0.05300
C4545       C  0.59126107  0.84848743  0.94286326    -0.32300
C4546       C  0.61269047  0.85517430  0.92100573     0.36800
H4547       H  0.58770339  0.80913966  0.86622331     0.17100
O4548       O  0.54655915  0.79222846  0.90353523    -0.59800
H4549       H  0.59217066  0.85991386  0.96413749     0.17100
O4550       O  0.63487179  0.87509232  0.92760469    -0.59900
H4551       H  0.62501132  0.89501513  0.92803160     0.44100
H4552       H  0.55513934  0.77240328  0.90920149     0.44100
C4553       C  0.61394057  0.90542393  0.81351895    -0.05000
C4554       C  0.62123965  0.93579036  0.81065965    -0.32400
C4555       C  0.59916639  0.95733136  0.80457409     0.36800
C4556       C  0.56914344  0.94873692  0.80253950    -0.05300
C4557       C  0.56184344  0.91827616  0.80436437    -0.32300
C4558       C  0.58409796  0.89661073  0.80976422     0.36800
H4559       H  0.64398695  0.94296544  0.81423528     0.17100
O4560       O  0.60680919  0.98697725  0.80315753    -0.59800
H4561       H  0.53869021  0.91147859  0.80335631     0.17100
O4562       O  0.57627773  0.86714287  0.81325686    -0.59900
H4563       H  0.57034892  0.86492332  0.83458151     0.44100
H4564       H  0.61039415  0.99123004  0.78158235     0.44100
C4565       C  0.68470869  0.90856254  0.88711286    -0.05000
C4566       C  0.67403508  0.93796682  0.88361780    -0.32400
C4567       C  0.67841321  0.95907302  0.90600717     0.36800
C4568       C  0.69372154  0.95096993  0.93250810    -0.05300
C4569       C  0.70611215  0.92212657  0.93535700    -0.32300
C4570       C  0.70152129  0.90082962  0.91290712     0.36800
H4571       H  0.66105777  0.94426009  0.86400736     0.17100
O4572       O  0.66655560  0.98726094  0.90230918    -0.59800
H4573       H  0.71763296  0.91551020  0.95584213     0.17100
O4574       O  0.71077832  0.87185998  0.91779485    -0.59900
H4575       H  0.73262911  0.87203134  0.91446143     0.44100
H4576       H  0.68343652  0.99990360  0.89557293     0.44100
C4577       C  0.64772727  0.65417591  0.79574281    -0.05000
C4578       C  0.67251830  0.64134092  0.78165389    -0.32400
C4579       C  0.67318388  0.63793332  0.75056258     0.36800
C4580       C  0.64859927  0.64705708  0.73305641    -0.05300
C4581       C  0.62344591  0.65945217  0.74703080    -0.32300
C4582       C  0.62291428  0.66307270  0.77827115     0.36800
H4583       H  0.69074269  0.63240403  0.79492595     0.17100
O4584       O  0.69734850  0.62433278  0.73760833    -0.59800
H4585       H  0.60442554  0.66668136  0.73364741     0.17100
O4586       O  0.59852316  0.67603813  0.79141440    -0.59900
H4587       H  0.58389193  0.65964490  0.79391346     0.44100
H4588       H  0.71226916  0.64042613  0.73482360     0.44100
C4589       C  0.64885254  0.79588381  0.85657847    -0.05000
C4590       C  0.66527808  0.78146808  0.87945148    -0.32400
C4591       C  0.66549294  0.75014013  0.88203652     0.36800
C4592       C  0.64919393  0.73292034  0.86155017    -0.05300
C4593       C  0.63247610  0.74727975  0.83896985    -0.32300
C4594       C  0.63178129  0.77861791  0.83669407     0.36800
H4595       H  0.67821280  0.79453275  0.89508504     0.17100
O4596       O  0.68180899  0.73650345  0.90448844    -0.59800
H4597       H  0.61960767  0.73415706  0.82332274     0.17100
O4598       O  0.61419217  0.79227931  0.81520294    -0.59900
H4599       H  0.59346305  0.78577034  0.81929558     0.44100
H4600       H  0.70244725  0.73534327  0.89662312     0.44100
C4601       C  0.60857490  0.61845324  0.84103210    -0.05000
C4602       C  0.58092759  0.61886447  0.85586441    -0.32400
C4603       C  0.55949420  0.59680248  0.85074484     0.36800
C4604       C  0.56505040  0.57423503  0.82979210    -0.05300
C4605       C  0.59253703  0.57350206  0.81503599    -0.32300
C4606       C  0.61457422  0.59486619  0.82106056     0.36800
H4607       H  0.57597841  0.63619552  0.87184521     0.17100
O4608       O  0.53282314  0.59797448  0.86569934    -0.59800
H4609       H  0.59744088  0.55550951  0.79971591     0.17100
O4610       O  0.64266179  0.59077994  0.80967105    -0.59900
H4611       H  0.64008979  0.58884589  0.78765006     0.44100
H4612       H  0.53661399  0.58769925  0.88521651     0.44100
C4613       C  0.69224583  0.57733112  0.95196982    -0.05000
C4614       C  0.70680091  0.57699838  0.92422017    -0.32400
C4615       C  0.70148798  0.59970667  0.90275184     0.36800
C4616       C  0.68186924  0.62348863  0.90941166    -0.05300
C4617       C  0.66871369  0.62445812  0.93790548    -0.32300
C4618       C  0.67342162  0.60149944  0.95893133     0.36800
H4619       H  0.72045417  0.55791915  0.91834731     0.17100
O4620       O  0.71296421  0.59675607  0.87446339    -0.59800
H4621       H  0.65351663  0.64238692  0.94347101     0.17100
O4622       O  0.65914772  0.60260631  0.98609328    -0.59900
H4623       H  0.63835815  0.59629413  0.98199540     0.44100
H4624       H  0.73481455  0.59939382  0.87673052     0.44100
C4625       C  0.61091924  0.69672262  0.90491294    -0.05000
C4626       C  0.61858816  0.69740684  0.93541775    -0.32400
C4627       C  0.59664226  0.70175508  0.95725662     0.36800
C4628       C  0.56669277  0.70610935  0.94860665    -0.05300
C4629       C  0.55936377  0.70776566  0.91800142    -0.32300
C4630       C  0.58134748  0.70312893  0.89611346     0.36800
H4631       H  0.64138691  0.69301796  0.94238940     0.17100
O4632       O  0.60438132  0.70017557  0.98705789    -0.59800
H4633       H  0.53631820  0.71090175  0.91111669     0.17100
O4634       O  0.57366475  0.70376192  0.86626231    -0.59900
H4635       H  0.56037587  0.68639313  0.86327250     0.44100
H4636       H  0.60274472  0.67871455  0.99271896     0.44100
C4637       C  0.85610137  0.64619046  0.72994411    -0.05000
C4638       C  0.86882088  0.67203493  0.74184896    -0.32400
C4639       C  0.86803513  0.67732364  0.77272503     0.36800
C4640       C  0.85657998  0.65539336  0.79227778    -0.05300
C4641       C  0.84434337  0.62921745  0.78052696    -0.32300
C4642       C  0.84311937  0.62503111  0.74947024     0.36800
H4643       H  0.87966191  0.68803125  0.72725304     0.17100
O4644       O  0.87873297  0.70375049  0.78371238    -0.59800
H4645       H  0.83492900  0.61247251  0.79546547     0.17100
O4646       O  0.82856005  0.60064122  0.73846712    -0.59900
H4647       H  0.80807186  0.60780831  0.73369325     0.44100
H4648       H  0.90056986  0.70330719  0.78024697     0.44100
C4649       C  0.72185417  0.66205509  0.86603489    -0.05000
C4650       C  0.73707025  0.65905251  0.83873281    -0.32400
C4651       C  0.76833640  0.65851389  0.83756140     0.36800
C4652       C  0.78521194  0.66194312  0.86395472    -0.05300
C4653       C  0.77012271  0.66605330  0.89119300    -0.32300
C4654       C  0.73879321  0.66624853  0.89237050     0.36800
H4655       H  0.72483570  0.65684596  0.81809016     0.17100
O4656       O  0.78215009  0.65306391  0.81074708    -0.59800
H4657       H  0.78268624  0.66958179  0.91164187     0.17100
O4658       O  0.72499374  0.67115767  0.91926970    -0.59900
H4659       H  0.72713746  0.69286529  0.92292774     0.44100
H4660       H  0.77915989  0.67149047  0.79842655     0.44100
C4661       C  0.82558951  0.62333779  0.90503282    -0.05000
C4662       C  0.80844847  0.59872649  0.89621931    -0.32400
C4663       C  0.80230829  0.57534700  0.91667818     0.36800
C4664       C  0.81377910  0.57651097  0.94608981    -0.05300
C4665       C  0.82954097  0.60180192  0.95517531    -0.32300
C4666       C  0.83541984  0.62510953  0.93493111     0.36800
H4667       H  0.80118292  0.59688961  0.87310037     0.17100
O4668       O  0.78803936  0.55010262  0.90703307    -0.59800
H4669       H  0.83817422  0.60305976  0.97787841     0.17100
O4670       O  0.85087963  0.64958579  0.94452968    -0.59900
H4671       H  0.87168841  0.64251198  0.94776988     0.44100
H4672       H  0.76878746  0.55704548  0.89829910     0.44100
C4673       C  0.93955505  0.57346623  0.82386527    -0.05000
C4674       C  0.94073566  0.60102150  0.80848731    -0.32400
C4675       C  0.91982353  0.62382350  0.81434942     0.36800
C4676       C  0.89673573  0.61882218  0.83527573    -0.05300
C4677       C  0.89536099  0.59102012  0.85014701    -0.32300
C4678       C  0.91649283  0.56855258  0.84472969     0.36800
H4679       H  0.95877421  0.60544036  0.79295941     0.17100
O4680       O  0.92376475  0.65162934  0.80166995    -0.59800
H4681       H  0.87796223  0.58678707  0.86645112     0.17100
O4682       O  0.91472656  0.54198012  0.86038383    -0.59900
H4683       H  0.89764958  0.53124019  0.85140220     0.44100
H4684       H  0.92367480  0.64859191  0.77962564     0.44100
C4685       C  0.94111117  0.70363771  0.94545094    -0.05000
C4686       C  0.94951376  0.69598123  0.91627651    -0.32400
C4687       C  0.92796723  0.69186663  0.89396198     0.36800
C4688       C  0.89758746  0.69537494  0.90070789    -0.05300
C4689       C  0.88918707  0.70492361  0.92933598    -0.32300
C4690       C  0.91080201  0.70877120  0.95188354     0.36800
H4691       H  0.97277712  0.69172333  0.91119145     0.17100
O4692       O  0.93661192  0.68229394  0.86619888    -0.59800
H4693       H  0.86576210  0.70730139  0.93479108     0.17100
O4694       O  0.90199984  0.71437718  0.98074539    -0.59900
H4695       H  0.89311718  0.73474257  0.98020442     0.44100
H4696       H  0.94269137  0.70065382  0.85514708     0.44100
C4697       C  0.86157785  0.85605535  0.71289839    -0.05000
C4698       C  0.84533896  0.87951012  0.72577128    -0.32400
C4699       C  0.84433295  0.88257131  0.75702519     0.36800
C4700       C  0.85988477  0.86218400  0.77569928    -0.05300
C4701       C  0.87672194  0.83925264  0.76284369    -0.32300
C4702       C  0.87806362  0.83636547  0.73159396     0.36800
H4703       H  0.83311020  0.89519523  0.71155981     0.17100
O4704       O  0.82788315  0.90532493  0.76915652    -0.59800
H4705       H  0.88918676  0.82382083  0.77705722     0.17100
O4706       O  0.89574791  0.81451940  0.71938632    -0.59900
H4707       H  0.91638126  0.81857368  0.72627861     0.44100
H4708       H  0.80796606  0.89656614  0.77302775     0.44100
C4709       C  0.78729147  0.86756467  0.84700791    -0.05000
C4710       C  0.77218106  0.84049104  0.85137045    -0.32400
C4711       C  0.74102833  0.83963516  0.85289506     0.36800
C4712       C  0.72425851  0.86615487  0.84940947    -0.05300
C4713       C  0.73923227  0.89315687  0.84364985    -0.32300
C4714       C  0.77048485  0.89398528  0.84229880     0.36800
H4715       H  0.78447494  0.81985689  0.85411445     0.17100
O4716       O  0.72727724  0.81301368  0.85943958    -0.59800
H4717       H  0.72664615  0.91362652  0.83978560     0.17100
O4718       O  0.78433215  0.92060348  0.83599799    -0.59900
H4719       H  0.78243844  0.92343705  0.81397358     0.44100
H4720       H  0.72923359  0.80084085  0.84110187     0.44100
C4721       C  0.85849160  0.73350220  0.85918841    -0.05000
C4722       C  0.88325053  0.74771537  0.84629011    -0.32400
C4723       C  0.88439051  0.77907867  0.84392905     0.36800
C4724       C  0.86069203  0.79650346  0.85491303    -0.05300
C4725       C  0.83656165  0.78219911  0.86889060    -0.32300
C4726       C  0.83512619  0.75093646  0.87068525     0.36800
H4727       H  0.90150785  0.73445083  0.83764390     0.17100
O4728       O  0.90881051  0.79257784  0.83130047    -0.59800
H4729       H  0.81912983  0.79530583  0.87910412     0.17100
O4730       O  0.81132728  0.73763446  0.88464865    -0.59900
H4731       H  0.79623820  0.73483550  0.86860856     0.44100
H4732       H  0.90900451  0.78619296  0.81008261     0.44100
C4733       C  0.81495287  0.95174598  0.93068370    -0.05000
C4734       C  0.80082327  0.92378366  0.93100850    -0.32400
C4735       C  0.80726335  0.90254006  0.90891152     0.36800
C4736       C  0.82719662  0.90962843  0.88540099    -0.05300
C4737       C  0.83983640  0.93827167  0.88441375    -0.32300
C4738       C  0.83386549  0.95917751  0.90663351     0.36800
H4739       H  0.78644875  0.91761063  0.94954277     0.17100
O4740       O  0.79556470  0.87438484  0.91176107    -0.59800
H4741       H  0.85529557  0.94425536  0.86685876     0.17100
O4742       O  0.84757413  0.98652907  0.90522454    -0.59900
H4743       H  0.83293456  0.00009191  0.89517825     0.44100
H4744       H  0.81143941  0.86215798  0.92160750     0.44100
C4745       C  0.90136477  0.84039167  0.88937404    -0.05000
C4746       C  0.89577891  0.81802336  0.91115641    -0.32400
C4747       C  0.91735640  0.81024990  0.93280798     0.36800
C4748       C  0.94453970  0.82569334  0.93374679    -0.05300
C4749       C  0.95021152  0.84796369  0.91221155    -0.32300
C4750       C  0.92909830  0.85524559  0.89007475     0.36800
H4751       H  0.87436289  0.80706360  0.91207564     0.17100
O4752       O  0.91094699  0.78878469  0.95398349    -0.59800
H4753       H  0.97122535  0.85985181  0.91253064     0.17100
O4754       O  0.93627255  0.87629375  0.86868358    -0.59900
H4755       H  0.93815043  0.89547314  0.87946442     0.44100
H4756       H  0.92045583  0.77029024  0.94645371     0.44100
C4757       C  0.89702073  0.90620193  0.81097105    -0.05000
C4758       C  0.88970146  0.93669191  0.81152154    -0.32400
C4759       C  0.91149153  0.95837758  0.80624527     0.36800
C4760       C  0.94104236  0.94959478  0.80050505    -0.05300
C4761       C  0.94790574  0.91914668  0.79750273    -0.32300
C4762       C  0.92586851  0.89735978  0.80224317     0.36800
H4763       H  0.86731486  0.94369187  0.81727515     0.17100
O4764       O  0.90433188  0.98805097  0.80928595    -0.59800
H4765       H  0.97064728  0.91221508  0.79297933     0.17100
O4766       O  0.93279262  0.86755464  0.79938205    -0.59900
H4767       H  0.94889961  0.86319278  0.81413794     0.44100
H4768       H  0.89560438  0.99428693  0.78967301     0.44100
loop_ 
_geom_bond_atom_site_label_1 
_geom_bond_atom_site_label_2 
_geom_bond_distance 
_geom_bond_site_symmetry_2 
_ccdc_geom_bond_type 
C1            H2   1.111       .  S
C1            C7   1.543       .  S
C1            C6   1.545       .  S
C1            C5   1.541       .  S
C3            H4   1.110       .  S
C3            C9   1.538       .  S
C3            C8   1.533       .  S
C3           C10   1.538       .  S
C5            C8   1.366       .  D
C5          C528   1.477       .  S
C6            C9   1.378       .  D
C6          C537   1.490       .  S
C7           C10   1.375       .  D
C7          C552   1.486       .  S
C8          C585   1.479       .  S
C9          C564   1.492       .  S
C10         C573   1.490       .  S
C11          H12   1.111       .  S
C11          C17   1.534       .  S
C11          C16   1.530       .  S
C11          C15   1.537       .  S
C13          H14   1.110       .  S
C13          C19   1.541       .  S
C13          C18   1.547       .  S
C13          C20   1.545       .  S
C15          C18   1.376       .  D
C15         C489   1.485       .  S
C16          C19   1.366       .  D
C16         C516   1.473       .  S
C17          C20   1.375       .  D
C17         C504   1.498       .  S
C18         C480   1.494       .  S
C19         C549   1.482       .  S
C20         C468   1.477       .  S
C21          H22   1.111       .  S
C21          C27   1.540       .  S
C21          C26   1.546       .  S
C21          C25   1.545       .  S
C23          H24   1.111       .  S
C23          C29   1.540       .  S
C23          C28   1.538       .  S
C23          C30   1.533       .  S
C25          C28   1.376       .  D
C25         C405   1.480       .  S
C26          C29   1.382       .  D
C26         C477   1.499       .  S
C27          C30   1.365       .  D
C27         C420   1.479       .  S
C28         C429   1.500       .  S
C29         C444   1.488       .  S
C30         C453   1.479       .  S
C31          H32   1.111       .  S
C31          C37   1.537       .  S
C31          C36   1.539       .  S
C31          C35   1.534       .  S
C33          H34   1.110       .  S
C33          C39   1.541       .  S
C33          C38   1.546       .  S
C33          C40   1.538       .  S
C35          C38   1.376       .  D
C35         C393   1.489       .  S
C36          C39   1.374       .  D
C36         C369   1.492       .  S
C37          C40   1.373       .  D
C37         C381   1.479       .  S
C38         C540   1.486       .  S
C39         C417   1.486       .  S
C40         C357   1.488       .  S
C41          H42   1.111       .  S
C41          C47   1.539       .  S
C41          C46   1.542       .  S
C41          C45   1.547       .  S
C43          H44   1.112       .  S
C43          C49   1.532       .  S
C43          C48   1.531       .  S
C43          C50   1.532       .  S
C45          C48   1.375       .  D
C45         C360   1.483       .  S
C46          C49   1.374       .  D
C46         C309   1.487       .  S
C47          C50   1.368       .  D
C47         C297   1.477       .  S
C48         C348   1.489       .  S
C49         C333   1.480       .  S
C50         C321   1.478       .  S
C51          H52   1.110       .  S
C51          C57   1.538       .  S
C51          C56   1.534       .  S
C51          C55   1.536       .  S
C53          H54   1.108       .  S
C53          C59   1.546       .  S
C53          C58   1.543       .  S
C53          C60   1.544       .  S
C55          C58   1.376       .  D
C55         C273   1.488       .  S
C56          C59   1.378       .  D
C56         C264   1.485       .  S
C57          C60   1.373       .  D
C57         C288   1.497       .  S
C58         C312   1.491       .  S
C59         C249   1.498       .  S
C60         C525   1.482       .  S
C61          H62   1.111       .  S
C61          C67   1.533       .  S
C61          C66   1.536       .  S
C61          C65   1.532       .  S
C63          H64   1.112       .  S
C63          C69   1.535       .  S
C63          C68   1.538       .  S
C63          C70   1.535       .  S
C65          C68   1.372       .  D
C65         C228   1.483       .  S
C66          C69   1.373       .  D
C66         C216   1.489       .  S
C67          C70   1.368       .  D
C67         C240   1.476       .  S
C68         C201   1.474       .  S
C69         C300   1.475       .  S
C70         C408   1.475       .  S
C71          H72   1.111       .  S
C71          C77   1.540       .  S
C71          C76   1.535       .  S
C71          C75   1.532       .  S
C73          H74   1.111       .  S
C73          C79   1.535       .  S
C73          C78   1.535       .  S
C73          C80   1.540       .  S
C75          C78   1.369       .  D
C75         C465   1.480       .  S
C76          C79   1.373       .  D
C76         C204   1.473       .  S
C77          C80   1.380       .  D
C77         C252   1.488       .  S
C78         C189   1.474       .  S
C79         C165   1.490       .  S
C80         C177   1.495       .  S
O81          V89   1.882       .  S
O81          C91   1.261       .  A
O82        V3665   1.895       .  S
O82          C92   1.263       .  A
O83        V2473   1.891       .  S
O83          C93   1.262       .  A
O84        V1281   1.897       .  S
O84          C94   1.264       .  A
O85        V1282   1.906       .  S
O85          C94   1.265       .  A
O86        V2474   1.907   1_545  S
O86          C93   1.264       .  A
O87        V3666   1.912       .  S
O87          C92   1.267       .  A
O88          V90   1.913   1_545  S
O88          C91   1.266       .  A
V89        O3658   1.893   1_445  S
V89        O2467   1.893   1_455  S
V89        O1276   1.898   1_545  S
V89          V90   2.088   1_545  T
V90        O1277   1.906       .  S
V90        O2470   1.909   1_465  S
V90        O3663   1.909   1_455  S
C91         C237   1.468       .  S
C92         C285   1.482       .  S
C93         C192   1.466       .  S
C94         C345   1.478       .  S
O95        V1295   1.893       .  S
O95         C105   1.262       .  A
O96        V2487   1.896       .  S
O96         C106   1.263       .  A
O97        V3679   1.894       .  S
O97         C107   1.263       .  A
O98         V103   1.897       .  S
O98         C108   1.263       .  A
O99         V104   1.909       .  S
O99         C108   1.266       .  A
O100       V3680   1.907       .  S
O100        C107   1.264       .  A
O101       V2488   1.915       .  S
O101        C106   1.269       .  A
O102       V1296   1.909       .  S
O102        C105   1.265       .  A
V103       O1287   1.892   1_545  S
V103       O2480   1.890   1_455  S
V103       O3673   1.888   1_445  S
V103        V104   2.089       .  T
V104       O3676   1.910   1_445  S
V104       O2485   1.911   1_455  S
V104       O1294   1.908   1_545  S
C105        C384   1.469       .  S
C106        C501   1.485       .  S
C107        C588   1.467       .  S
C108        C432   1.476       .  S
O109       V1905   1.913       .  S
O109        C119   1.267       .  A
O110        V117   1.905       .  S
O110        C120   1.265       .  A
O111       V1309   1.910       .  S
O111        C121   1.267       .  A
O112        V713   1.909       .  S
O112        C122   1.267       .  A
O113        V714   1.893       .  S
O113        C122   1.263       .  A
O114       V1310   1.886       .  S
O114        C121   1.262       .  A
O115        V118   1.899       .  S
O115        C120   1.265       .  A
O116       V1906   1.897       .  S
O116        C119   1.265       .  A
V117       O1897   1.909   1_544  S
V117       O1303   1.904   1_545  S
V117        O708   1.909   1_554  S
V117        V118   2.079       .  T
V118        O709   1.886   1_554  S
V118       O1306   1.884   1_545  S
V118       O1904   1.900   1_544  S
C119        C396   1.478       .  S
C120        C225   1.473       .  S
C121        C336   1.469       .  S
C122        C441   1.475       .  S
O123       V2515   1.902       .  S
O123        C133   1.265       .  A
O124        V727   1.888       .  S
O124        C134   1.261       .  A
O125        V131   1.889       .  S
O125        C135   1.262       .  A
O126       V3111   1.888       .  S
O126        C136   1.261       .  A
O127       V3112   1.905       .  S
O127        C136   1.264       .  A
O128        V132   1.906       .  S
O128        C135   1.265       .  A
O129        V728   1.915       .  S
O129        C134   1.266       .  A
O130       V2516   1.912       .  S
O130        C133   1.267       .  A
V131       O2507   1.899   1_455  S
V131        O720   1.892   1_554  S
V131       O3106   1.886   1_454  S
V131        V132   2.088       .  T
V132       O3107   1.909   1_454  S
V132        O725   1.914   1_554  S
V132       O2514   1.911   1_455  S
C133        C180   1.486       .  S
C134        C456   1.468       .  S
C135        C213   1.473       .  S
C136        C513   1.465       .  S
O137       V1933   1.892       .  S
O137        C147   1.264       .  A
O138        V145   1.891       .  S
O138        C148   1.263       .  A
O139       V1337   1.896       .  S
O139        C149   1.264       .  A
O140        V741   1.893       .  S
O140        C150   1.263       .  A
O141        V742   1.914       .  S
O141        C150   1.267       .  A
O142       V1338   1.909       .  S
O142        C149   1.266       .  A
O143        V146   1.914       .  S
O143        C148   1.268       .  A
O144       V1934   1.911       .  S
O144        C147   1.266       .  A
V145       O1925   1.891   1_544  S
V145       O1331   1.890   1_545  S
V145        O736   1.893   1_554  S
V145        V146   2.079       .  T
V146        O737   1.910   1_554  S
V146       O1334   1.908   1_545  S
V146       O1932   1.915   1_544  S
C147        C561   1.475       .  S
C148        C168   1.476       .  S
C149        C276   1.474       .  S
C150        C492   1.475       .  S
O151       V3139   1.890       .  S
O151        C161   1.262       .  A
O152        V159   1.885       .  S
O152        C162   1.261       .  A
O153        V755   1.897       .  S
O153        C163   1.264       .  A
O154       V2543   1.897       .  S
O154        C164   1.264       .  A
O155       V2544   1.908   1_554  S
O155        C164   1.265       .  A
O156        V756   1.905       .  S
O156        C163   1.266       .  A
O157        V160   1.913   1_554  S
O157        C162   1.266       .  A
O158       V3140   1.913       .  S
O158        C161   1.267       .  A
V159       O3131   1.893   1_454  S
V159        O749   1.896   1_554  S
V159       O2538   1.894   1_455  S
V159        V160   2.085   1_554  T
V160       O2539   1.907   1_456  S
V160        O752   1.904       .  S
V160       O3138   1.909   1_455  S
C161        C576   1.472       .  S
C162        C324   1.470       .  S
C163        C372   1.478       .  S
C164        C261   1.470       .  S
C165        C166   1.403       .  A
C165        C170   1.413       .  A
C166        C167   1.399       .  A
C166        H171   1.084       .  S
C167        C168   1.408       .  A
C167        O172   1.372       .  S
C168        C169   1.402       .  A
C169        C170   1.405       .  A
C169        H173   1.083       .  S
C170        O174   1.372       .  S
O172        H176   0.992       .  S
O174        H175   0.992       .  S
C177        C178   1.405       .  A
C177        C182   1.412       .  A
C178        C179   1.401       .  A
C178        H183   1.084       .  S
C179        C180   1.411       .  A
C179        O184   1.372       .  S
C180        C181   1.405       .  A
C181        C182   1.406       .  A
C181        H185   1.084       .  S
C182        O186   1.371       .  S
O184        H188   0.992       .  S
O186        H187   0.992       .  S
C189        C190   1.399       .  A
C189        C194   1.409       .  A
C190        C191   1.397       .  A
C190        H195   1.084       .  S
C191        C192   1.405       .  A
C191        O196   1.371       .  S
C192        C193   1.400       .  A
C193        C194   1.404       .  A
C193        H197   1.084       .  S
C194        O198   1.372       .  S
O196        H200   0.992       .  S
O198        H199   0.992       .  S
C201        C202   1.400       .  A
C201        C206   1.408       .  A
C202        C203   1.395       .  A
C202        H207   1.083       .  S
C203        C204   1.405       .  A
C203        O208   1.372       .  S
C204        C205   1.402       .  A
C205        C206   1.400       .  A
C205        H209   1.084       .  S
C206        O210   1.373       .  S
O208        H212   0.992       .  S
O210        H211   0.992       .  S
C213        C214   1.402       .  A
C213        C218   1.406       .  A
C214        C215   1.396       .  A
C214        H219   1.084       .  S
C215        C216   1.409       .  A
C215        O220   1.371       .  S
C216        C217   1.406       .  A
C217        C218   1.401       .  A
C217        H221   1.076       .  S
C218        O222   1.372       .  S
O220        H224   0.992       .  S
O222        H223   0.992       .  S
C225        C226   1.402       .  A
C225        C230   1.408       .  A
C226        C227   1.399       .  A
C226        H231   1.084       .  S
C227        C228   1.407       .  A
C227        O232   1.373       .  S
C228        C229   1.404       .  A
C229        C230   1.402       .  A
C229        H233   1.083       .  S
C230        O234   1.371       .  S
O232        H236   0.992       .  S
O234        H235   0.992       .  S
C237        C238   1.401       .  A
C237        C242   1.407       .  A
C238        C239   1.392       .  A
C238        H243   1.083       .  S
C239        C240   1.403       .  A
C239        O244   1.373       .  S
C240        C241   1.406       .  A
C241        C242   1.406       .  A
C241        H245   1.083       .  S
C242        O246   1.372       .  S
O244        H248   0.992       .  S
O246        H247   0.992       .  S
C249        C250   1.406       .  A
C249        C254   1.410       .  A
C250        C251   1.403       .  A
C250        H255   1.075       .  S
C251        C252   1.407       .  A
C251        O256   1.373       .  S
C252        C253   1.400       .  A
C253        C254   1.397       .  A
C253        H257   1.078       .  S
C254        O258   1.368       .  S
O256        H260   0.992       .  S
O258        H259   0.992       .  S
C261        C262   1.402       .  A
C261        C266   1.403       .  A
C262        C263   1.402       .  A
C262        H267   1.083       .  S
C263        C264   1.407       .  A
C263        O268   1.372       .  S
C264        C265   1.405       .  A
C265        C266   1.401       .  A
C265        H269   1.081       .  S
C266        O270   1.371       .  S
O268        H272   0.992       .  S
O270        H271   0.992       .  S
C273        C274   1.405       .  A
C273        C278   1.409       .  A
C274        C275   1.404       .  A
C274        H279   1.083       .  S
C275        C276   1.409       .  A
C275        O280   1.371       .  S
C276        C277   1.400       .  A
C277        C278   1.397       .  A
C277        H281   1.084       .  S
C278        O282   1.369       .  S
O280        H284   0.991       .  S
O282        H283   0.992       .  S
C285        C286   1.404       .  A
C285        C290   1.407       .  A
C286        C287   1.402       .  A
C286        H291   1.084       .  S
C287        C288   1.411       .  A
C287        O292   1.372       .  S
C288        C289   1.406       .  A
C289        C290   1.404       .  A
C289        H293   1.078       .  S
C290        O294   1.371       .  S
O292        H296   0.992       .  S
O294        H295   0.983       .  S
C297        C298   1.400       .  A
C297        C302   1.407       .  A
C298        C299   1.400       .  A
C298        H303   1.082       .  S
C299        C300   1.406       .  A
C299        O304   1.374       .  S
C300        C301   1.401       .  A
C301        C302   1.401       .  A
C301        H305   1.083       .  S
C302        O306   1.371       .  S
O304        H308   0.991       .  S
O306        H307   0.992       .  S
C309        C310   1.401       .  A
C309        C314   1.410       .  A
C310        C311   1.402       .  A
C310        H315   1.084       .  S
C311        C312   1.410       .  A
C311        O316   1.371       .  S
C312        C313   1.404       .  A
C313        C314   1.404       .  A
C313        H317   1.083       .  S
C314        O318   1.373       .  S
O316        H320   0.992       .  S
O318        H319   0.992       .  S
C321        C322   1.399       .  A
C321        C326   1.409       .  A
C322        C323   1.395       .  A
C322        H327   1.084       .  S
C323        C324   1.407       .  A
C323        O328   1.372       .  S
C324        C325   1.403       .  A
C325        C326   1.404       .  A
C325        H329   1.084       .  S
C326        O330   1.370       .  S
O328        H332   0.992       .  S
O330        H331   0.992       .  S
C333        C334   1.401       .  A
C333        C338   1.410       .  A
C334        C335   1.395       .  A
C334        H339   1.084       .  S
C335        C336   1.408       .  A
C335        O340   1.372       .  S
C336        C337   1.402       .  A
C337        C338   1.401       .  A
C337        H341   1.083       .  S
C338        O342   1.371       .  S
O340        H344   0.992       .  S
O342        H343   0.992       .  S
C345        C346   1.405       .  A
C345        C350   1.407       .  A
C346        C347   1.406       .  A
C346        H351   1.084       .  S
C347        C348   1.410       .  A
C347        O352   1.372       .  S
C348        C349   1.403       .  A
C349        C350   1.399       .  A
C349        H353   1.084       .  S
C350        O354   1.372       .  S
O352        H356   0.992       .  S
O354        H355   0.992       .  S
C357        C358   1.401       .  A
C357        C362   1.410       .  A
C358        C359   1.395       .  A
C358        H363   1.077       .  S
C359        C360   1.403       .  A
C359        O364   1.368       .  S
C360        C361   1.403       .  A
C361        C362   1.406       .  A
C361        H365   1.084       .  S
C362        O366   1.372       .  S
O364        H368   0.992       .  S
O366        H367   0.992       .  S
C369        C370   1.404       .  A
C369        C374   1.411       .  A
C370        C371   1.400       .  A
C370        H375   1.076       .  S
C371        C372   1.406       .  A
C371        O376   1.371       .  S
C372        C373   1.404       .  A
C373        C374   1.402       .  A
C373        H377   1.084       .  S
C374        O378   1.372       .  S
O376        H380   0.991       .  S
O378        H379   0.992       .  S
C381        C382   1.403       .  A
C381        C386   1.406       .  A
C382        C383   1.400       .  A
C382        H387   1.082       .  S
C383        C384   1.404       .  A
C383        O388   1.371       .  S
C384        C385   1.403       .  A
C385        C386   1.403       .  A
C385        H389   1.084       .  S
C386        O390   1.372       .  S
O388        H392   0.992       .  S
O390        H391   0.992       .  S
C393        C394   1.402       .  A
C393        C398   1.411       .  A
C394        C395   1.397       .  A
C394        H399   1.082       .  S
C395        C396   1.406       .  A
C395        O400   1.372       .  S
C396        C397   1.406       .  A
C397        C398   1.409       .  A
C397        H401   1.084       .  S
C398        O402   1.372       .  S
O400        H404   0.992       .  S
O402        H403   0.991       .  S
C405        C406   1.401       .  A
C405        C410   1.407       .  A
C406        C407   1.396       .  A
C406        H411   1.078       .  S
C407        C408   1.404       .  A
C407        O412   1.372       .  S
C408        C409   1.403       .  A
C409        C410   1.403       .  A
C409        H413   1.083       .  S
C410        O414   1.372       .  S
O412        H416   0.992       .  S
O414        H415   0.992       .  S
C417        C418   1.401       .  A
C417        C422   1.411       .  A
C418        C419   1.402       .  A
C418        H423   1.083       .  S
C419        C420   1.406       .  A
C419        O424   1.370       .  S
C420        C421   1.400       .  A
C421        C422   1.405       .  A
C421        H425   1.084       .  S
C422        O426   1.374       .  S
O424        H428   0.992       .  S
O426        H427   0.992       .  S
C429        C430   1.405       .  A
C429        C434   1.416       .  A
C430        C431   1.399       .  A
C430        H435   1.081       .  S
C431        C432   1.405       .  A
C431        O436   1.372       .  S
C432        C433   1.401       .  A
C433        C434   1.408       .  A
C433        H437   1.084       .  S
C434        O438   1.372       .  S
O436        H440   0.992       .  S
O438        H439   0.993       .  S
C441        C442   1.402       .  A
C441        C446   1.407       .  A
C442        C443   1.405       .  A
C442        H447   1.082       .  S
C443        C444   1.410       .  A
C443        O448   1.371       .  S
C444        C445   1.405       .  A
C445        C446   1.398       .  A
C445        H449   1.082       .  S
C446        O450   1.373       .  S
O448        H452   0.992       .  S
O450        H451   0.992       .  S
C453        C454   1.401       .  A
C453        C458   1.406       .  A
C454        C455   1.400       .  A
C454        H459   1.083       .  S
C455        C456   1.406       .  A
C455        O460   1.372       .  S
C456        C457   1.403       .  A
C457        C458   1.405       .  A
C457        H461   1.084       .  S
C458        O462   1.373       .  S
O460        H464   0.992       .  S
O462        H463   0.991       .  S
C465        C466   1.402       .  A
C465        C470   1.407       .  A
C466        C467   1.402       .  A
C466        H471   1.081       .  S
C467        C468   1.405       .  A
C467        O472   1.374       .  S
C468        C469   1.402       .  A
C469        C470   1.400       .  A
C469        H473   1.084       .  S
C470        O474   1.370       .  S
O472        H476   0.992       .  S
O474        H475   0.992       .  S
C477        C478   1.404       .  A
C477        C482   1.412       .  A
C478        C479   1.400       .  A
C478        H483   1.075       .  S
C479        C480   1.406       .  A
C479        O484   1.372       .  S
C480        C481   1.407       .  A
C481        C482   1.407       .  A
C481        H485   1.083       .  S
C482        O486   1.371       .  S
O484        H488   0.992       .  S
O486        H487   0.991       .  S
C489        C490   1.405       .  A
C489        C494   1.406       .  A
C490        C491   1.408       .  A
C490        H495   1.084       .  S
C491        C492   1.408       .  A
C491        O496   1.373       .  S
C492        C493   1.401       .  A
C493        C494   1.398       .  A
C493        H497   1.084       .  S
C494        O498   1.372       .  S
O496        H500   0.990       .  S
O498        H499   0.992       .  S
C501        C502   1.402       .  A
C501        C506   1.410       .  A
C502        C503   1.408       .  A
C502        H507   1.084       .  S
C503        C504   1.413       .  A
C503        O508   1.371       .  S
C504        C505   1.404       .  A
C505        C506   1.401       .  A
C505        H509   1.084       .  S
C506        O510   1.372       .  S
O508        H512   0.994       .  S
O510        H511   0.992       .  S
C513        C514   1.400       .  A
C513        C518   1.409       .  A
C514        C515   1.394       .  A
C514        H519   1.084       .  S
C515        C516   1.403       .  A
C515        O520   1.371       .  S
C516        C517   1.403       .  A
C517        C518   1.403       .  A
C517        H521   1.084       .  S
C518        O522   1.373       .  S
O520        H524   0.992       .  S
O522        H523   0.990       .  S
C525        C526   1.402       .  A
C525        C530   1.407       .  A
C526        C527   1.402       .  A
C526        H531   1.083       .  S
C527        C528   1.406       .  A
C527        O532   1.371       .  S
C528        C529   1.399       .  A
C529        C530   1.401       .  A
C529        H533   1.082       .  S
C530        O534   1.373       .  S
O532        H536   0.992       .  S
O534        H535   0.991       .  S
C537        C538   1.402       .  A
C537        C542   1.410       .  A
C538        C539   1.398       .  A
C538        H543   1.076       .  S
C539        C540   1.406       .  A
C539        O544   1.372       .  S
C540        C541   1.405       .  A
C541        C542   1.402       .  A
C541        H545   1.083       .  S
C542        O546   1.371       .  S
O544        H548   0.992       .  S
O546        H547   0.992       .  S
C549        C550   1.405       .  A
C549        C554   1.404       .  A
C550        C551   1.406       .  A
C550        H555   1.083       .  S
C551        C552   1.407       .  A
C551        O556   1.372       .  S
C552        C553   1.402       .  A
C553        C554   1.399       .  A
C553        H557   1.079       .  S
C554        O558   1.372       .  S
O556        H560   0.991       .  S
O558        H559   0.992       .  S
C561        C562   1.405       .  A
C561        C566   1.405       .  A
C562        C563   1.406       .  A
C562        H567   1.084       .  S
C563        C564   1.413       .  A
C563        O568   1.371       .  S
C564        C565   1.402       .  A
C565        C566   1.394       .  A
C565        H569   1.078       .  S
C566        O570   1.372       .  S
O568        H572   0.992       .  S
O570        H571   0.992       .  S
C573        C574   1.405       .  A
C573        C578   1.410       .  A
C574        C575   1.403       .  A
C574        H579   1.082       .  S
C575        C576   1.405       .  A
C575        O580   1.369       .  S
C576        C577   1.400       .  A
C577        C578   1.398       .  A
C577        H581   1.084       .  S
C578        O582   1.370       .  S
O580        H584   0.990       .  S
O582        H583   0.992       .  S
C585        C586   1.400       .  A
C585        C590   1.407       .  A
C586        C587   1.398       .  A
C586        H591   1.082       .  S
C587        C588   1.404       .  A
C587        O592   1.371       .  S
C588        C589   1.402       .  A
C589        C590   1.407       .  A
C589        H593   1.084       .  S
C590        O594   1.375       .  S
O592        H596   0.992       .  S
O594        H595   0.991       .  S
C597        H598   1.111       .  S
C597        C603   1.543       .  S
C597        C602   1.545       .  S
C597        C601   1.539       .  S
C599        H600   1.107       .  S
C599        C605   1.538       .  S
C599        C604   1.532       .  S
C599        C606   1.540       .  S
C601        C604   1.365       .  D
C601       C1124   1.474       .  S
C602        C605   1.379       .  D
C602       C1133   1.492       .  S
C603        C606   1.378       .  D
C603       C1148   1.486       .  S
C604       C1181   1.479       .  S
C605       C1160   1.494       .  S
C606       C1169   1.497       .  S
C607        H608   1.111       .  S
C607        C613   1.534       .  S
C607        C612   1.531       .  S
C607        C611   1.537       .  S
C609        H610   1.110       .  S
C609        C615   1.539       .  S
C609        C614   1.545       .  S
C609        C616   1.542       .  S
C611        C614   1.376       .  D
C611       C1085   1.483       .  S
C612        C615   1.366       .  D
C612       C1112   1.472       .  S
C613        C616   1.373       .  D
C613       C1100   1.493       .  S
C614       C1076   1.491       .  S
C615       C1145   1.481       .  S
C616       C1064   1.475       .  S
C617        H618   1.111       .  S
C617        C623   1.541       .  S
C617        C622   1.544       .  S
C617        C621   1.545       .  S
C619        H620   1.111       .  S
C619        C625   1.539       .  S
C619        C624   1.537       .  S
C619        C626   1.532       .  S
C621        C624   1.376       .  D
C621       C1001   1.480       .  S
C622        C625   1.379       .  D
C622       C1073   1.497       .  S
C623        C626   1.365       .  D
C623       C1016   1.478       .  S
C624       C1025   1.498       .  S
C625       C1040   1.484       .  S
C626       C1049   1.482       .  S
C627        H628   1.111       .  S
C627        C633   1.536       .  S
C627        C632   1.537       .  S
C627        C631   1.534       .  S
C629        H630   1.110       .  S
C629        C635   1.542       .  S
C629        C634   1.548       .  S
C629        C636   1.540       .  S
C631        C634   1.377       .  D
C631        C989   1.490       .  S
C632        C635   1.372       .  D
C632        C965   1.489       .  S
C633        C636   1.374       .  D
C633        C977   1.479       .  S
C634       C1136   1.487       .  S
C635       C1013   1.485       .  S
C636        C953   1.492       .  S
C637        H638   1.111       .  S
C637        C643   1.536       .  S
C637        C642   1.539       .  S
C637        C641   1.545       .  S
C639        H640   1.112       .  S
C639        C645   1.530       .  S
C639        C644   1.532       .  S
C639        C646   1.530       .  S
C641        C644   1.376       .  D
C641        C956   1.484       .  S
C642        C645   1.372       .  D
C642        C905   1.481       .  S
C643        C646   1.366       .  D
C643        C893   1.472       .  S
C644        C944   1.487       .  S
C645        C929   1.476       .  S
C646        C917   1.474       .  S
C647        H648   1.111       .  S
C647        C653   1.536       .  S
C647        C652   1.537       .  S
C647        C651   1.533       .  S
C649        H650   1.108       .  S
C649        C655   1.546       .  S
C649        C654   1.544       .  S
C649        C656   1.546       .  S
C651        C654   1.374       .  D
C651        C869   1.486       .  S
C652        C655   1.377       .  D
C652        C860   1.479       .  S
C653        C656   1.374       .  D
C653        C884   1.501       .  S
C654        C908   1.487       .  S
C655        C845   1.504       .  S
C656       C1121   1.479       .  S
C657        H658   1.111       .  S
C657        C663   1.532       .  S
C657        C662   1.535       .  S
C657        C661   1.533       .  S
C659        H660   1.112       .  S
C659        C665   1.535       .  S
C659        C664   1.540       .  S
C659        C666   1.537       .  S
C661        C664   1.374       .  D
C661        C824   1.486       .  S
C662        C665   1.371       .  D
C662        C812   1.487       .  S
C663        C666   1.367       .  D
C663        C836   1.474       .  S
C664        C797   1.477       .  S
C665        C896   1.473       .  S
C666       C1004   1.475       .  S
C667        H668   1.111       .  S
C667        C673   1.541       .  S
C667        C672   1.537       .  S
C667        C671   1.535       .  S
C669        H670   1.111       .  S
C669        C675   1.536       .  S
C669        C674   1.534       .  S
C669        C676   1.543       .  S
C671        C674   1.367       .  D
C671       C1061   1.477       .  S
C672        C675   1.373       .  D
C672        C800   1.476       .  S
C673        C676   1.382       .  D
C673        C848   1.496       .  S
C674        C785   1.479       .  S
C675        C761   1.490       .  S
C676        C773   1.492       .  S
O677        V685   1.885       .  S
O677        C687   1.261       .  A
O678       V4261   1.901       .  S
O678        C688   1.264       .  A
O679       V3069   1.893       .  S
O679        C689   1.262       .  A
O680       V1877   1.896       .  S
O680        C690   1.264       .  A
O681       V1878   1.903       .  S
O681        C690   1.265       .  A
O682       V3070   1.912   1_545  S
O682        C689   1.265       .  A
O683       V4262   1.911       .  S
O683        C688   1.267       .  A
O684        V686   1.914   1_545  S
O684        C687   1.266       .  A
V685       O4254   1.895   1_445  S
V685       O3063   1.893   1_455  S
V685       O1872   1.899   1_545  S
V685        V686   2.088   1_545  T
V686       O1873   1.905       .  S
V686       O3066   1.912   1_465  S
V686       O4259   1.911   1_455  S
C687        C833   1.469       .  S
C688        C881   1.485       .  S
C689        C788   1.470       .  S
C690        C941   1.476       .  S
O691       V1891   1.894       .  S
O691        C701   1.262       .  A
O692       V3083   1.894       .  S
O692        C702   1.263       .  A
O693       V4275   1.890       .  S
O693        C703   1.261       .  A
O694        V699   1.898       .  S
O694        C704   1.264       .  A
O695        V700   1.908       .  S
O695        C704   1.266       .  A
O696       V4276   1.910       .  S
O696        C703   1.265       .  A
O697       V3084   1.914       .  S
O697        C702   1.268       .  A
O698       V1892   1.911       .  S
O698        C701   1.266       .  A
V699       O1883   1.895   1_545  S
V699       O3076   1.895   1_455  S
V699       O4269   1.890   1_445  S
V699        V700   2.087       .  T
V700       O4272   1.910   1_445  S
V700       O3081   1.912   1_455  S
V700       O1890   1.910   1_545  S
C701        C980   1.470       .  S
C702       C1097   1.482       .  S
C703       C1184   1.466       .  S
C704       C1028   1.476       .  S
O705       V1309   1.911   1_556  S
O705        C715   1.266       .  A
O706        V713   1.908       .  S
O706        C716   1.266       .  A
O707       V1905   1.906       .  S
O707        C717   1.266       .  A
O708        C718   1.266       .  A
O709        C718   1.262       .  A
O710       V1906   1.882       .  S
O710        C717   1.261       .  A
O711        V714   1.898       .  S
O711        C716   1.265       .  A
O712       V1310   1.900   1_556  S
O712        C715   1.266       .  A
V713       O1301   1.913   1_545  S
V713       O1899   1.908   1_545  S
V713        V714   2.078       .  T
V714       O1902   1.887   1_545  S
V714       O1308   1.898   1_545  S
C715        C992   1.479       .  S
C716        C821   1.477       .  S
C717        C932   1.465       .  S
C718       C1037   1.469       .  S
O719       V3111   1.901       .  S
O719        C729   1.265       .  A
O720        C730   1.262       .  A
O721        V727   1.891       .  S
O721        C731   1.263       .  A
O722       V2515   1.887   1_556  S
O722        C732   1.261       .  A
O723       V2516   1.907   1_556  S
O723        C732   1.265       .  A
O724        V728   1.906       .  S
O724        C731   1.265       .  A
O725        C730   1.266       .  A
O726       V3112   1.911       .  S
O726        C729   1.267       .  A
V727       O3103   1.896   1_455  S
V727       O2510   1.886   1_455  S
V727        V728   2.088       .  T
V728       O2511   1.909   1_455  S
V728       O3110   1.911   1_455  S
C729        C776   1.484       .  S
C730       C1052   1.471       .  S
C731        C809   1.473       .  S
C732       C1109   1.465       .  S
O733       V1337   1.891   1_556  S
O733        C743   1.264       .  A
O734        V741   1.890       .  S
O734        C744   1.263       .  A
O735       V1933   1.890       .  S
O735        C745   1.263       .  A
O736        C746   1.263       .  A
O737        C746   1.266       .  A
O738       V1934   1.908       .  S
O738        C745   1.266       .  A
O739        V742   1.912       .  S
O739        C744   1.267       .  A
O740       V1338   1.910   1_556  S
O740        C743   1.266       .  A
V741       O1329   1.891   1_545  S
V741       O1927   1.891   1_545  S
V741        V742   2.078       .  T
V742       O1930   1.910   1_545  S
V742       O1336   1.913   1_545  S
C743       C1157   1.475       .  S
C744        C764   1.474       .  S
C745        C872   1.469       .  S
C746       C1088   1.472       .  S
O747       V2543   1.890   1_556  S
O747        C757   1.262       .  A
O748        V755   1.882       .  S
O748        C758   1.261       .  A
O749        C759   1.264       .  A
O750       V3139   1.896       .  S
O750        C760   1.264       .  A
O751       V3140   1.905       .  S
O751        C760   1.264       .  A
O752        C759   1.265       .  A
O753        V756   1.910       .  S
O753        C758   1.266       .  A
O754       V2544   1.909       .  S
O754        C757   1.266       .  A
V755       O2535   1.894   1_455  S
V755       O3134   1.893   1_455  S
V755        V756   2.084       .  T
V756       O3135   1.904   1_455  S
V756       O2542   1.909   1_455  S
C757       C1172   1.472       .  S
C758        C920   1.466       .  S
C759        C968   1.475       .  S
C760        C857   1.466       .  S
C761        C762   1.403       .  A
C761        C766   1.413       .  A
C762        C763   1.398       .  A
C762        H767   1.082       .  S
C763        C764   1.407       .  A
C763        O768   1.373       .  S
C764        C765   1.401       .  A
C765        C766   1.405       .  A
C765        H769   1.083       .  S
C766        O770   1.371       .  S
O768        H772   0.992       .  S
O770        H771   0.993       .  S
C773        C774   1.404       .  A
C773        C778   1.411       .  A
C774        C775   1.400       .  A
C774        H779   1.084       .  S
C775        C776   1.410       .  A
C775        O780   1.372       .  S
C776        C777   1.405       .  A
C777        C778   1.405       .  A
C777        H781   1.084       .  S
C778        O782   1.371       .  S
O780        H784   0.992       .  S
O782        H783   0.992       .  S
C785        C786   1.400       .  A
C785        C790   1.408       .  A
C786        C787   1.401       .  A
C786        H791   1.084       .  S
C787        C788   1.407       .  A
C787        O792   1.371       .  S
C788        C789   1.401       .  A
C789        C790   1.405       .  A
C789        H793   1.084       .  S
C790        O794   1.372       .  S
O792        H796   0.992       .  S
O794        H795   0.992       .  S
C797        C798   1.401       .  A
C797        C802   1.407       .  A
C798        C799   1.396       .  A
C798        H803   1.083       .  S
C799        C800   1.406       .  A
C799        O804   1.372       .  S
C800        C801   1.402       .  A
C801        C802   1.401       .  A
C801        H805   1.084       .  S
C802        O806   1.372       .  S
O804        H808   0.992       .  S
O806        H807   0.992       .  S
C809        C810   1.402       .  A
C809        C814   1.407       .  A
C810        C811   1.396       .  A
C810        H815   1.084       .  S
C811        C812   1.408       .  A
C811        O816   1.371       .  S
C812        C813   1.405       .  A
C813        C814   1.402       .  A
C813        H817   1.078       .  S
C814        O818   1.372       .  S
O816        H820   0.992       .  S
O818        H819   0.992       .  S
C821        C822   1.402       .  A
C821        C826   1.409       .  A
C822        C823   1.400       .  A
C822        H827   1.084       .  S
C823        C824   1.408       .  A
C823        O828   1.373       .  S
C824        C825   1.404       .  A
C825        C826   1.403       .  A
C825        H829   1.083       .  S
C826        O830   1.371       .  S
O828        H832   0.992       .  S
O830        H831   0.992       .  S
C833        C834   1.400       .  A
C833        C838   1.408       .  A
C834        C835   1.393       .  A
C834        H839   1.081       .  S
C835        C836   1.402       .  A
C835        O840   1.373       .  S
C836        C837   1.405       .  A
C837        C838   1.406       .  A
C837        H841   1.084       .  S
C838        O842   1.372       .  S
O840        H844   0.992       .  S
O842        H843   0.992       .  S
C845        C846   1.408       .  A
C845        C850   1.410       .  A
C846        C847   1.406       .  A
C846        H851   1.076       .  S
C847        C848   1.408       .  A
C847        O852   1.373       .  S
C848        C849   1.403       .  A
C849        C850   1.400       .  A
C849        H853   1.077       .  S
C850        O854   1.369       .  S
O852        H856   0.992       .  S
O854        H855   0.992       .  S
C857        C858   1.402       .  A
C857        C862   1.402       .  A
C858        C859   1.401       .  A
C858        H863   1.083       .  S
C859        C860   1.405       .  A
C859        O864   1.372       .  S
C860        C861   1.403       .  A
C861        C862   1.398       .  A
C861        H865   1.081       .  S
C862        O866   1.371       .  S
O864        H868   0.992       .  S
O866        H867   0.992       .  S
C869        C870   1.405       .  A
C869        C874   1.407       .  A
C870        C871   1.403       .  A
C870        H875   1.083       .  S
C871        C872   1.408       .  A
C871        O876   1.370       .  S
C872        C873   1.398       .  A
C873        C874   1.394       .  A
C873        H877   1.084       .  S
C874        O878   1.368       .  S
O876        H880   0.990       .  S
O878        H879   0.992       .  S
C881        C882   1.405       .  A
C881        C886   1.407       .  A
C882        C883   1.405       .  A
C882        H887   1.084       .  S
C883        C884   1.413       .  A
C883        O888   1.372       .  S
C884        C885   1.405       .  A
C885        C886   1.404       .  A
C885        H889   1.078       .  S
C886        O890   1.371       .  S
O888        H892   0.992       .  S
O890        H891   0.984       .  S
C893        C894   1.399       .  A
C893        C898   1.406       .  A
C894        C895   1.399       .  A
C894        H899   1.082       .  S
C895        C896   1.405       .  A
C895        O900   1.374       .  S
C896        C897   1.401       .  A
C897        C898   1.400       .  A
C897        H901   1.083       .  S
C898        O902   1.371       .  S
O900        H904   0.992       .  S
O902        H903   0.992       .  S
C905        C906   1.400       .  A
C905        C910   1.408       .  A
C906        C907   1.399       .  A
C906        H911   1.084       .  S
C907        C908   1.408       .  A
C907        O912   1.370       .  S
C908        C909   1.404       .  A
C909        C910   1.402       .  A
C909        H913   1.084       .  S
C910        O914   1.373       .  S
O912        H916   0.992       .  S
O914        H915   0.992       .  S
C917        C918   1.398       .  A
C917        C922   1.409       .  A
C918        C919   1.394       .  A
C918        H923   1.084       .  S
C919        C920   1.407       .  A
C919        O924   1.372       .  S
C920        C921   1.401       .  A
C921        C922   1.403       .  A
C921        H925   1.084       .  S
C922        O926   1.370       .  S
O924        H928   0.992       .  S
O926        H927   0.992       .  S
C929        C930   1.401       .  A
C929        C934   1.409       .  A
C930        C931   1.393       .  A
C930        H935   1.084       .  S
C931        C932   1.407       .  A
C931        O936   1.373       .  S
C932        C933   1.401       .  A
C933        C934   1.399       .  A
C933        H937   1.082       .  S
C934        O938   1.371       .  S
O936        H940   0.992       .  S
O938        H939   0.992       .  S
C941        C942   1.404       .  A
C941        C946   1.407       .  A
C942        C943   1.405       .  A
C942        H947   1.084       .  S
C943        C944   1.410       .  A
C943        O948   1.372       .  S
C944        C945   1.404       .  A
C945        C946   1.397       .  A
C945        H949   1.084       .  S
C946        O950   1.372       .  S
O948        H952   0.992       .  S
O950        H951   0.992       .  S
C953        C954   1.401       .  A
C953        C958   1.411       .  A
C954        C955   1.396       .  A
C954        H959   1.076       .  S
C955        C956   1.404       .  A
C955        O960   1.369       .  S
C956        C957   1.403       .  A
C957        C958   1.406       .  A
C957        H961   1.084       .  S
C958        O962   1.371       .  S
O960        H964   0.992       .  S
O962        H963   0.992       .  S
C965        C966   1.403       .  A
C965        C970   1.410       .  A
C966        C967   1.399       .  A
C966        H971   1.078       .  S
C967        C968   1.407       .  A
C967        O972   1.371       .  S
C968        C969   1.403       .  A
C969        C970   1.401       .  A
C969        H973   1.084       .  S
C970        O974   1.372       .  S
O972        H976   0.989       .  S
O974        H975   0.992       .  S
C977        C978   1.402       .  A
C977        C982   1.407       .  A
C978        C979   1.398       .  A
C978        H983   1.082       .  S
C979        C980   1.404       .  A
C979        O984   1.371       .  S
C980        C981   1.404       .  A
C981        C982   1.404       .  A
C981        H985   1.084       .  S
C982        O986   1.372       .  S
O984        H988   0.992       .  S
O986        H987   0.992       .  S
C989        C990   1.403       .  A
C989        C994   1.411       .  A
C990        C991   1.397       .  A
C990        H995   1.081       .  S
C991        C992   1.406       .  A
C991        O996   1.372       .  S
C992        C993   1.406       .  A
C993        C994   1.408       .  A
C993        H997   1.084       .  S
C994        O998   1.371       .  S
O996       H1000   0.992       .  S
O998        H999   0.991       .  S
C1001      C1002   1.401       .  A
C1001      C1006   1.407       .  A
C1002      C1003   1.396       .  A
C1002      H1007   1.078       .  S
C1003      C1004   1.403       .  A
C1003      O1008   1.372       .  S
C1004      C1005   1.403       .  A
C1005      C1006   1.403       .  A
C1005      H1009   1.083       .  S
C1006      O1010   1.372       .  S
O1008      H1012   0.992       .  S
O1010      H1011   0.992       .  S
C1013      C1014   1.402       .  A
C1013      C1018   1.410       .  A
C1014      C1015   1.402       .  A
C1014      H1019   1.083       .  S
C1015      C1016   1.407       .  A
C1015      O1020   1.371       .  S
C1016      C1017   1.398       .  A
C1017      C1018   1.403       .  A
C1017      H1021   1.084       .  S
C1018      O1022   1.372       .  S
O1020      H1024   0.992       .  S
O1022      H1023   0.992       .  S
C1025      C1026   1.406       .  A
C1025      C1030   1.415       .  A
C1026      C1027   1.400       .  A
C1026      H1031   1.082       .  S
C1027      C1028   1.406       .  A
C1027      O1032   1.372       .  S
C1028      C1029   1.401       .  A
C1029      C1030   1.407       .  A
C1029      H1033   1.084       .  S
C1030      O1034   1.372       .  S
O1032      H1036   0.992       .  S
O1034      H1035   0.993       .  S
C1037      C1038   1.402       .  A
C1037      C1042   1.405       .  A
C1038      C1039   1.405       .  A
C1038      H1043   1.082       .  S
C1039      C1040   1.411       .  A
C1039      O1044   1.372       .  S
C1040      C1041   1.402       .  A
C1041      C1042   1.393       .  A
C1041      H1045   1.080       .  S
C1042      O1046   1.373       .  S
O1044      H1048   0.992       .  S
O1046      H1047   0.992       .  S
C1049      C1050   1.401       .  A
C1049      C1054   1.407       .  A
C1050      C1051   1.400       .  A
C1050      H1055   1.082       .  S
C1051      C1052   1.406       .  A
C1051      O1056   1.372       .  S
C1052      C1053   1.403       .  A
C1053      C1054   1.406       .  A
C1053      H1057   1.084       .  S
C1054      O1058   1.373       .  S
O1056      H1060   0.992       .  S
O1058      H1059   0.991       .  S
C1061      C1062   1.401       .  A
C1061      C1066   1.406       .  A
C1062      C1063   1.400       .  A
C1062      H1067   1.080       .  S
C1063      C1064   1.404       .  A
C1063      O1068   1.374       .  S
C1064      C1065   1.402       .  A
C1065      C1066   1.400       .  A
C1065      H1069   1.084       .  S
C1066      O1070   1.370       .  S
O1068      H1072   0.991       .  S
O1070      H1071   0.992       .  S
C1073      C1074   1.403       .  A
C1073      C1078   1.411       .  A
C1074      C1075   1.400       .  A
C1074      H1079   1.075       .  S
C1075      C1076   1.406       .  A
C1075      O1080   1.372       .  S
C1076      C1077   1.406       .  A
C1077      C1078   1.405       .  A
C1077      H1081   1.083       .  S
C1078      O1082   1.371       .  S
O1080      H1084   0.992       .  S
O1082      H1083   0.991       .  S
C1085      C1086   1.404       .  A
C1085      C1090   1.406       .  A
C1086      C1087   1.407       .  A
C1086      H1091   1.084       .  S
C1087      C1088   1.408       .  A
C1087      O1092   1.374       .  S
C1088      C1089   1.401       .  A
C1089      C1090   1.398       .  A
C1089      H1093   1.084       .  S
C1090      O1094   1.371       .  S
O1092      H1096   0.991       .  S
O1094      H1095   0.992       .  S
C1097      C1098   1.402       .  A
C1097      C1102   1.410       .  A
C1098      C1099   1.407       .  A
C1098      H1103   1.084       .  S
C1099      C1100   1.412       .  A
C1099      O1104   1.371       .  S
C1100      C1101   1.403       .  A
C1101      C1102   1.401       .  A
C1101      H1105   1.084       .  S
C1102      O1106   1.372       .  S
O1104      H1108   0.994       .  S
O1106      H1107   0.992       .  S
C1109      C1110   1.401       .  A
C1109      C1114   1.406       .  A
C1110      C1111   1.395       .  A
C1110      H1115   1.084       .  S
C1111      C1112   1.403       .  A
C1111      O1116   1.371       .  S
C1112      C1113   1.403       .  A
C1113      C1114   1.403       .  A
C1113      H1117   1.084       .  S
C1114      O1118   1.373       .  S
O1116      H1120   0.992       .  S
O1118      H1119   0.991       .  S
C1121      C1122   1.402       .  A
C1121      C1126   1.407       .  A
C1122      C1123   1.401       .  A
C1122      H1127   1.083       .  S
C1123      C1124   1.405       .  A
C1123      O1128   1.371       .  S
C1124      C1125   1.399       .  A
C1125      C1126   1.401       .  A
C1125      H1129   1.082       .  S
C1126      O1130   1.373       .  S
O1128      H1132   0.992       .  S
O1130      H1131   0.991       .  S
C1133      C1134   1.402       .  A
C1133      C1138   1.411       .  A
C1134      C1135   1.398       .  A
C1134      H1139   1.075       .  S
C1135      C1136   1.406       .  A
C1135      O1140   1.372       .  S
C1136      C1137   1.405       .  A
C1137      C1138   1.403       .  A
C1137      H1141   1.083       .  S
C1138      O1142   1.371       .  S
O1140      H1144   0.992       .  S
O1142      H1143   0.991       .  S
C1145      C1146   1.405       .  A
C1145      C1150   1.404       .  A
C1146      C1147   1.405       .  A
C1146      H1151   1.083       .  S
C1147      C1148   1.407       .  A
C1147      O1152   1.371       .  S
C1148      C1149   1.402       .  A
C1149      C1150   1.399       .  A
C1149      H1153   1.078       .  S
C1150      O1154   1.372       .  S
O1152      H1156   0.991       .  S
O1154      H1155   0.992       .  S
C1157      C1158   1.404       .  A
C1157      C1162   1.406       .  A
C1158      C1159   1.405       .  A
C1158      H1163   1.084       .  S
C1159      C1160   1.414       .  A
C1159      O1164   1.371       .  S
C1160      C1161   1.404       .  A
C1161      C1162   1.394       .  A
C1161      H1165   1.079       .  S
C1162      O1166   1.372       .  S
O1164      H1168   0.992       .  S
O1166      H1167   0.992       .  S
C1169      C1170   1.408       .  A
C1169      C1174   1.414       .  A
C1170      C1171   1.401       .  A
C1170      H1175   1.081       .  S
C1171      C1172   1.404       .  A
C1171      O1176   1.369       .  S
C1172      C1173   1.399       .  A
C1173      C1174   1.398       .  A
C1173      H1177   1.084       .  S
C1174      O1178   1.372       .  S
O1176      H1180   0.991       .  S
O1178      H1179   0.992       .  S
C1181      C1182   1.400       .  A
C1181      C1186   1.407       .  A
C1182      C1183   1.397       .  A
C1182      H1187   1.082       .  S
C1183      C1184   1.404       .  A
C1183      O1188   1.371       .  S
C1184      C1185   1.403       .  A
C1185      C1186   1.406       .  A
C1185      H1189   1.084       .  S
C1186      O1190   1.373       .  S
O1188      H1192   0.992       .  S
O1190      H1191   0.991       .  S
C1193      H1194   1.111       .  S
C1193      C1199   1.546       .  S
C1193      C1198   1.547       .  S
C1193      C1197   1.539       .  S
C1195      H1196   1.108       .  S
C1195      C1201   1.538       .  S
C1195      C1200   1.536       .  S
C1195      C1202   1.542       .  S
C1197      C1200   1.366       .  D
C1197      C1720   1.481       .  S
C1198      C1201   1.379       .  D
C1198      C1729   1.494       .  S
C1199      C1202   1.379       .  D
C1199      C1744   1.486       .  S
C1200      C1777   1.480       .  S
C1201      C1756   1.494       .  S
C1202      C1765   1.503       .  S
C1203      H1204   1.112       .  S
C1203      C1209   1.532       .  S
C1203      C1208   1.531       .  S
C1203      C1207   1.537       .  S
C1205      H1206   1.110       .  S
C1205      C1211   1.541       .  S
C1205      C1210   1.549       .  S
C1205      C1212   1.542       .  S
C1207      C1210   1.378       .  D
C1207      C1681   1.485       .  S
C1208      C1211   1.367       .  D
C1208      C1708   1.474       .  S
C1209      C1212   1.372       .  D
C1209      C1696   1.488       .  S
C1210      C1672   1.497       .  S
C1211      C1741   1.482       .  S
C1212      C1660   1.477       .  S
C1213      H1214   1.111       .  S
C1213      C1219   1.543       .  S
C1213      C1218   1.546       .  S
C1213      C1217   1.548       .  S
C1215      H1216   1.111       .  S
C1215      C1221   1.540       .  S
C1215      C1220   1.537       .  S
C1215      C1222   1.532       .  S
C1217      C1220   1.377       .  D
C1217      C1597   1.482       .  S
C1218      C1221   1.380       .  D
C1218      C1669   1.505       .  S
C1219      C1222   1.368       .  D
C1219      C1612   1.478       .  S
C1220      C1621   1.501       .  S
C1221      C1636   1.482       .  S
C1222      C1645   1.486       .  S
C1223      H1224   1.111       .  S
C1223      C1229   1.537       .  S
C1223      C1228   1.539       .  S
C1223      C1227   1.537       .  S
C1225      H1226   1.109       .  S
C1225      C1231   1.539       .  S
C1225      C1230   1.545       .  S
C1225      C1232   1.536       .  S
C1227      C1230   1.378       .  D
C1227      C1585   1.492       .  S
C1228      C1231   1.373       .  D
C1228      C1561   1.492       .  S
C1229      C1232   1.372       .  D
C1229      C1573   1.478       .  S
C1230      C1732   1.489       .  S
C1231      C1609   1.482       .  S
C1232      C1549   1.487       .  S
C1233      H1234   1.111       .  S
C1233      C1239   1.537       .  S
C1233      C1238   1.539       .  S
C1233      C1237   1.545       .  S
C1235      H1236   1.112       .  S
C1235      C1241   1.528       .  S
C1235      C1240   1.532       .  S
C1235      C1242   1.529       .  S
C1237      C1240   1.377       .  D
C1237      C1552   1.480       .  S
C1238      C1241   1.372       .  D
C1238      C1501   1.482       .  S
C1239      C1242   1.366       .  D
C1239      C1489   1.475       .  S
C1240      C1540   1.493       .  S
C1241      C1525   1.473       .  S
C1242      C1513   1.474       .  S
C1243      H1244   1.110       .  S
C1243      C1249   1.537       .  S
C1243      C1248   1.534       .  S
C1243      C1247   1.535       .  S
C1245      H1246   1.107       .  S
C1245      C1251   1.544       .  S
C1245      C1250   1.543       .  S
C1245      C1252   1.543       .  S
C1247      C1250   1.375       .  D
C1247      C1465   1.489       .  S
C1248      C1251   1.376       .  D
C1248      C1456   1.482       .  S
C1249      C1252   1.374       .  D
C1249      C1480   1.492       .  S
C1250      C1504   1.486       .  S
C1251      C1441   1.496       .  S
C1252      C1717   1.485       .  S
C1253      H1254   1.111       .  S
C1253      C1259   1.535       .  S
C1253      C1258   1.534       .  S
C1253      C1257   1.536       .  S
C1255      H1256   1.111       .  S
C1255      C1261   1.538       .  S
C1255      C1260   1.541       .  S
C1255      C1262   1.539       .  S
C1257      C1260   1.373       .  D
C1257      C1420   1.486       .  S
C1258      C1261   1.371       .  D
C1258      C1408   1.487       .  S
C1259      C1262   1.369       .  D
C1259      C1432   1.478       .  S
C1260      C1393   1.482       .  S
C1261      C1492   1.474       .  S
C1262      C1600   1.477       .  S
C1263      H1264   1.111       .  S
C1263      C1269   1.540       .  S
C1263      C1268   1.541       .  S
C1263      C1267   1.538       .  S
C1265      H1266   1.111       .  S
C1265      C1271   1.537       .  S
C1265      C1270   1.529       .  S
C1265      C1272   1.536       .  S
C1267      C1270   1.367       .  D
C1267      C1657   1.479       .  S
C1268      C1271   1.378       .  D
C1268      C1396   1.481       .  S
C1269      C1272   1.377       .  D
C1269      C1444   1.489       .  S
C1270      C1381   1.476       .  S
C1271      C1357   1.493       .  S
C1272      C1369   1.486       .  S
O1273      V1281   1.880       .  S
O1273      C1283   1.261       .  A
O1274      V2473   1.892   1_565  S
O1274      C1284   1.263       .  A
O1275      V3665   1.893       .  S
O1275      C1285   1.262       .  A
O1276      C1286   1.265       .  A
O1277      C1286   1.265       .  A
O1278      V3666   1.909       .  S
O1278      C1285   1.265       .  A
O1279      V2474   1.905       .  S
O1279      C1284   1.266       .  A
O1280      V1282   1.915       .  S
O1280      C1283   1.266       .  A
V1281      O2466   1.890   1_455  S
V1281      O3659   1.891   1_455  S
V1281      V1282   2.089       .  T
V1282      O3662   1.911   1_455  S
V1282      O2471   1.908   1_455  S
C1283      C1429   1.469       .  S
C1284      C1477   1.476       .  S
C1285      C1384   1.468       .  S
C1286      C1537   1.480       .  S
O1287      C1297   1.262       .  A
O1288      V3679   1.893       .  S
O1288      C1298   1.262       .  A
O1289      V2487   1.893   1_565  S
O1289      C1299   1.262       .  A
O1290      V1295   1.902       .  S
O1290      C1300   1.264       .  A
O1291      V1296   1.906       .  S
O1291      C1300   1.265       .  A
O1292      V2488   1.911   1_565  S
O1292      C1299   1.265       .  A
O1293      V3680   1.911       .  S
O1293      C1298   1.267       .  A
O1294      C1297   1.264       .  A
V1295      O3672   1.889   1_455  S
V1295      O2481   1.893   1_455  S
V1295      V1296   2.088       .  T
V1296      O2484   1.910   1_455  S
V1296      O3677   1.910   1_455  S
C1297      C1576   1.466       .  S
C1298      C1693   1.478       .  S
C1299      C1780   1.469       .  S
C1300      C1624   1.478       .  S
O1301      C1311   1.266       .  A
O1302      V1309   1.910       .  S
O1302      C1312   1.266       .  A
O1303      C1313   1.266       .  A
O1304      V1905   1.908       .  S
O1304      C1314   1.266       .  A
O1305      V1906   1.884       .  S
O1305      C1314   1.261       .  A
O1306      C1313   1.261       .  A
O1307      V1310   1.900       .  S
O1307      C1312   1.265       .  A
O1308      C1311   1.265       .  A
V1309      O1900   1.911   1_554  S
V1309      V1310   2.078       .  T
V1310      O1901   1.889   1_554  S
C1311      C1588   1.479       .  S
C1312      C1417   1.478       .  S
C1313      C1528   1.463       .  S
C1314      C1633   1.467       .  S
O1315      V3707   1.896       .  S
O1315      C1325   1.264       .  A
O1316      V1919   1.893       .  S
O1316      C1326   1.262       .  A
O1317      V1323   1.892       .  S
O1317      C1327   1.263       .  A
O1318      V4303   1.889       .  S
O1318      C1328   1.261       .  A
O1319      V4304   1.907       .  S
O1319      C1328   1.265       .  A
O1320      V1324   1.907       .  S
O1320      C1327   1.265       .  A
O1321      V1920   1.918       .  S
O1321      C1326   1.268       .  A
O1322      V3708   1.909       .  S
O1322      C1325   1.266       .  A
V1323      O3699   1.898   1_455  S
V1323      O1912   1.891   1_554  S
V1323      O4298   1.891   1_454  S
V1323      V1324   2.087       .  T
V1324      O4299   1.911   1_454  S
V1324      O1917   1.918   1_554  S
V1324      O3706   1.911   1_455  S
C1325      C1372   1.477       .  S
C1326      C1648   1.475       .  S
C1327      C1405   1.473       .  S
C1328      C1705   1.466       .  S
O1329      C1339   1.263       .  A
O1330      V1337   1.892       .  S
O1330      C1340   1.264       .  A
O1331      C1341   1.263       .  A
O1332      V1933   1.893       .  S
O1332      C1342   1.263       .  A
O1333      V1934   1.912       .  S
O1333      C1342   1.267       .  A
O1334      C1341   1.266       .  A
O1335      V1338   1.910       .  S
O1335      C1340   1.267       .  A
O1336      C1339   1.267       .  A
V1337      O1928   1.896   1_554  S
V1337      V1338   2.078       .  T
V1338      O1929   1.911   1_554  S
C1339      C1753   1.477       .  S
C1340      C1360   1.476       .  S
C1341      C1468   1.471       .  S
C1342      C1684   1.474       .  S
O1343      V4331   1.893       .  S
O1343      C1353   1.263       .  A
O1344      V1351   1.879       .  S
O1344      C1354   1.260       .  A
O1345      V1947   1.896       .  S
O1345      C1355   1.264       .  A
O1346      V3735   1.893       .  S
O1346      C1356   1.263       .  A
O1347      V3736   1.908   1_554  S
O1347      C1356   1.265       .  A
O1348      V1948   1.906       .  S
O1348      C1355   1.266       .  A
O1349      V1352   1.912   1_554  S
O1349      C1354   1.266       .  A
O1350      V4332   1.914       .  S
O1350      C1353   1.268       .  A
V1351      O4323   1.888   1_454  S
V1351      O1941   1.896   1_554  S
V1351      O3730   1.894   1_455  S
V1351      V1352   2.084   1_554  T
V1352      O3731   1.905   1_456  S
V1352      O1944   1.906       .  S
V1352      O4330   1.909   1_455  S
C1353      C1768   1.479       .  S
C1354      C1516   1.466       .  S
C1355      C1564   1.477       .  S
C1356      C1453   1.467       .  S
C1357      C1358   1.404       .  A
C1357      C1362   1.413       .  A
C1358      C1359   1.395       .  A
C1358      H1363   1.081       .  S
C1359      C1360   1.406       .  A
C1359      O1364   1.373       .  S
C1360      C1361   1.403       .  A
C1361      C1362   1.407       .  A
C1361      H1365   1.083       .  S
C1362      O1366   1.371       .  S
O1364      H1368   0.992       .  S
O1366      H1367   0.992       .  S
C1369      C1370   1.402       .  A
C1369      C1374   1.411       .  A
C1370      C1371   1.397       .  A
C1370      H1375   1.084       .  S
C1371      C1372   1.408       .  A
C1371      O1376   1.372       .  S
C1372      C1373   1.405       .  A
C1373      C1374   1.404       .  A
C1373      H1377   1.084       .  S
C1374      O1378   1.372       .  S
O1376      H1380   0.992       .  S
O1378      H1379   0.992       .  S
C1381      C1382   1.400       .  A
C1381      C1386   1.408       .  A
C1382      C1383   1.401       .  A
C1382      H1387   1.084       .  S
C1383      C1384   1.407       .  A
C1383      O1388   1.371       .  S
C1384      C1385   1.400       .  A
C1385      C1386   1.403       .  A
C1385      H1389   1.084       .  S
C1386      O1390   1.373       .  S
O1388      H1392   0.992       .  S
O1390      H1391   0.992       .  S
C1393      C1394   1.401       .  A
C1393      C1398   1.409       .  A
C1394      C1395   1.399       .  A
C1394      H1399   1.083       .  S
C1395      C1396   1.408       .  A
C1395      O1400   1.372       .  S
C1396      C1397   1.402       .  A
C1397      C1398   1.402       .  A
C1397      H1401   1.084       .  S
C1398      O1402   1.372       .  S
O1400      H1404   0.992       .  S
O1402      H1403   0.992       .  S
C1405      C1406   1.402       .  A
C1405      C1410   1.407       .  A
C1406      C1407   1.396       .  A
C1406      H1411   1.084       .  S
C1407      C1408   1.408       .  A
C1407      O1412   1.371       .  S
C1408      C1409   1.406       .  A
C1409      C1410   1.403       .  A
C1409      H1413   1.077       .  S
C1410      O1414   1.372       .  S
O1412      H1416   0.992       .  S
O1414      H1415   0.992       .  S
C1417      C1418   1.403       .  A
C1417      C1422   1.409       .  A
C1418      C1419   1.400       .  A
C1418      H1423   1.084       .  S
C1419      C1420   1.407       .  A
C1419      O1424   1.373       .  S
C1420      C1421   1.405       .  A
C1421      C1422   1.404       .  A
C1421      H1425   1.083       .  S
C1422      O1426   1.371       .  S
O1424      H1428   0.992       .  S
O1426      H1427   0.992       .  S
C1429      C1430   1.400       .  A
C1429      C1434   1.408       .  A
C1430      C1431   1.392       .  A
C1430      H1435   1.083       .  S
C1431      C1432   1.404       .  A
C1431      O1436   1.373       .  S
C1432      C1433   1.406       .  A
C1433      C1434   1.407       .  A
C1433      H1437   1.083       .  S
C1434      O1438   1.371       .  S
O1436      H1440   0.992       .  S
O1438      H1439   0.992       .  S
C1441      C1442   1.406       .  A
C1441      C1446   1.410       .  A
C1442      C1443   1.403       .  A
C1442      H1447   1.077       .  S
C1443      C1444   1.409       .  A
C1443      O1448   1.373       .  S
C1444      C1445   1.400       .  A
C1445      C1446   1.397       .  A
C1445      H1449   1.078       .  S
C1446      O1450   1.368       .  S
O1448      H1452   0.992       .  S
O1450      H1451   0.992       .  S
C1453      C1454   1.402       .  A
C1453      C1458   1.403       .  A
C1454      C1455   1.402       .  A
C1454      H1459   1.083       .  S
C1455      C1456   1.406       .  A
C1455      O1460   1.372       .  S
C1456      C1457   1.404       .  A
C1457      C1458   1.400       .  A
C1457      H1461   1.082       .  S
C1458      O1462   1.371       .  S
O1460      H1464   0.992       .  S
O1462      H1463   0.992       .  S
C1465      C1466   1.407       .  A
C1465      C1470   1.408       .  A
C1466      C1467   1.403       .  A
C1466      H1471   1.083       .  S
C1467      C1468   1.408       .  A
C1467      O1472   1.370       .  S
C1468      C1469   1.398       .  A
C1469      C1470   1.395       .  A
C1469      H1473   1.084       .  S
C1470      O1474   1.369       .  S
O1472      H1476   0.991       .  S
O1474      H1475   0.992       .  S
C1477      C1478   1.403       .  A
C1477      C1482   1.406       .  A
C1478      C1479   1.400       .  A
C1478      H1483   1.084       .  S
C1479      C1480   1.411       .  A
C1479      O1484   1.372       .  S
C1480      C1481   1.405       .  A
C1481      C1482   1.400       .  A
C1481      H1485   1.076       .  S
C1482      O1486   1.371       .  S
O1484      H1488   0.992       .  S
O1486      H1487   0.984       .  S
C1489      C1490   1.400       .  A
C1489      C1494   1.406       .  A
C1490      C1491   1.401       .  A
C1490      H1495   1.083       .  S
C1491      C1492   1.406       .  A
C1491      O1496   1.375       .  S
C1492      C1493   1.401       .  A
C1493      C1494   1.400       .  A
C1493      H1497   1.083       .  S
C1494      O1498   1.371       .  S
O1496      H1500   0.992       .  S
O1498      H1499   0.992       .  S
C1501      C1502   1.400       .  A
C1501      C1506   1.409       .  A
C1502      C1503   1.399       .  A
C1502      H1507   1.084       .  S
C1503      C1504   1.408       .  A
C1503      O1508   1.370       .  S
C1504      C1505   1.404       .  A
C1505      C1506   1.402       .  A
C1505      H1509   1.083       .  S
C1506      O1510   1.372       .  S
O1508      H1512   0.992       .  S
O1510      H1511   0.992       .  S
C1513      C1514   1.398       .  A
C1513      C1518   1.409       .  A
C1514      C1515   1.393       .  A
C1514      H1519   1.084       .  S
C1515      C1516   1.407       .  A
C1515      O1520   1.372       .  S
C1516      C1517   1.402       .  A
C1517      C1518   1.403       .  A
C1517      H1521   1.084       .  S
C1518      O1522   1.370       .  S
O1520      H1524   0.992       .  S
O1522      H1523   0.992       .  S
C1525      C1526   1.400       .  A
C1525      C1530   1.408       .  A
C1526      C1527   1.393       .  A
C1526      H1531   1.084       .  S
C1527      C1528   1.406       .  A
C1527      O1532   1.372       .  S
C1528      C1529   1.402       .  A
C1529      C1530   1.399       .  A
C1529      H1533   1.083       .  S
C1530      O1534   1.372       .  S
O1532      H1536   0.992       .  S
O1534      H1535   0.992       .  S
C1537      C1538   1.405       .  A
C1537      C1542   1.407       .  A
C1538      C1539   1.407       .  A
C1538      H1543   1.084       .  S
C1539      C1540   1.412       .  A
C1539      O1544   1.372       .  S
C1540      C1541   1.404       .  A
C1541      C1542   1.398       .  A
C1541      H1545   1.084       .  S
C1542      O1546   1.372       .  S
O1544      H1548   0.993       .  S
O1546      H1547   0.992       .  S
C1549      C1550   1.402       .  A
C1549      C1554   1.410       .  A
C1550      C1551   1.394       .  A
C1550      H1555   1.078       .  S
C1551      C1552   1.403       .  A
C1551      O1556   1.369       .  S
C1552      C1553   1.402       .  A
C1553      C1554   1.404       .  A
C1553      H1557   1.084       .  S
C1554      O1558   1.371       .  S
O1556      H1560   0.992       .  S
O1558      H1559   0.992       .  S
C1561      C1562   1.405       .  A
C1561      C1566   1.410       .  A
C1562      C1563   1.402       .  A
C1562      H1567   1.078       .  S
C1563      C1564   1.408       .  A
C1563      O1568   1.371       .  S
C1564      C1565   1.402       .  A
C1565      C1566   1.400       .  A
C1565      H1569   1.084       .  S
C1566      O1570   1.372       .  S
O1568      H1572   0.990       .  S
O1570      H1571   0.992       .  S
C1573      C1574   1.401       .  A
C1573      C1578   1.407       .  A
C1574      C1575   1.397       .  A
C1574      H1579   1.082       .  S
C1575      C1576   1.403       .  A
C1575      O1580   1.372       .  S
C1576      C1577   1.404       .  A
C1577      C1578   1.403       .  A
C1577      H1581   1.084       .  S
C1578      O1582   1.372       .  S
O1580      H1584   0.992       .  S
O1582      H1583   0.992       .  S
C1585      C1586   1.402       .  A
C1585      C1590   1.412       .  A
C1586      C1587   1.396       .  A
C1586      H1591   1.080       .  S
C1587      C1588   1.405       .  A
C1587      O1592   1.372       .  S
C1588      C1589   1.406       .  A
C1589      C1590   1.410       .  A
C1589      H1593   1.084       .  S
C1590      O1594   1.372       .  S
O1592      H1596   0.992       .  S
O1594      H1595   0.991       .  S
C1597      C1598   1.401       .  A
C1597      C1602   1.408       .  A
C1598      C1599   1.396       .  A
C1598      H1603   1.077       .  S
C1599      C1600   1.403       .  A
C1599      O1604   1.372       .  S
C1600      C1601   1.404       .  A
C1601      C1602   1.404       .  A
C1601      H1605   1.083       .  S
C1602      O1606   1.372       .  S
O1604      H1608   0.992       .  S
O1606      H1607   0.992       .  S
C1609      C1610   1.401       .  A
C1609      C1614   1.409       .  A
C1610      C1611   1.402       .  A
C1610      H1615   1.084       .  S
C1611      C1612   1.406       .  A
C1611      O1616   1.371       .  S
C1612      C1613   1.400       .  A
C1613      C1614   1.404       .  A
C1613      H1617   1.084       .  S
C1614      O1618   1.373       .  S
O1616      H1620   0.992       .  S
O1618      H1619   0.992       .  S
C1621      C1622   1.407       .  A
C1621      C1626   1.415       .  A
C1622      C1623   1.402       .  A
C1622      H1627   1.082       .  S
C1623      C1624   1.406       .  A
C1623      O1628   1.372       .  S
C1624      C1625   1.400       .  A
C1625      C1626   1.406       .  A
C1625      H1629   1.084       .  S
C1626      O1630   1.372       .  S
O1628      H1632   0.992       .  S
O1630      H1631   0.993       .  S
C1633      C1634   1.401       .  A
C1633      C1638   1.405       .  A
C1634      C1635   1.403       .  A
C1634      H1639   1.082       .  S
C1635      C1636   1.410       .  A
C1635      O1640   1.372       .  S
C1636      C1637   1.402       .  A
C1637      C1638   1.393       .  A
C1637      H1641   1.081       .  S
C1638      O1642   1.373       .  S
O1640      H1644   0.992       .  S
O1642      H1643   0.992       .  S
C1645      C1646   1.403       .  A
C1645      C1650   1.407       .  A
C1646      C1647   1.403       .  A
C1646      H1651   1.083       .  S
C1647      C1648   1.407       .  A
C1647      O1652   1.372       .  S
C1648      C1649   1.403       .  A
C1649      C1650   1.407       .  A
C1649      H1653   1.084       .  S
C1650      O1654   1.373       .  S
O1652      H1656   0.992       .  S
O1654      H1655   0.991       .  S
C1657      C1658   1.402       .  A
C1657      C1662   1.406       .  A
C1658      C1659   1.401       .  A
C1658      H1663   1.081       .  S
C1659      C1660   1.405       .  A
C1659      O1664   1.373       .  S
C1660      C1661   1.402       .  A
C1661      C1662   1.400       .  A
C1661      H1665   1.084       .  S
C1662      O1666   1.370       .  S
O1664      H1668   0.991       .  S
O1666      H1667   0.992       .  S
C1669      C1670   1.405       .  A
C1669      C1674   1.414       .  A
C1670      C1671   1.404       .  A
C1670      H1675   1.075       .  S
C1671      C1672   1.408       .  A
C1671      O1676   1.372       .  S
C1672      C1673   1.406       .  A
C1673      C1674   1.406       .  A
C1673      H1677   1.083       .  S
C1674      O1678   1.370       .  S
O1676      H1680   0.992       .  S
O1678      H1679   0.991       .  S
C1681      C1682   1.404       .  A
C1681      C1686   1.408       .  A
C1682      C1683   1.405       .  A
C1682      H1687   1.084       .  S
C1683      C1684   1.407       .  A
C1683      O1688   1.371       .  S
C1684      C1685   1.401       .  A
C1685      C1686   1.399       .  A
C1685      H1689   1.084       .  S
C1686      O1690   1.371       .  S
O1688      H1692   0.990       .  S
O1690      H1691   0.992       .  S
C1693      C1694   1.402       .  A
C1693      C1698   1.409       .  A
C1694      C1695   1.405       .  A
C1694      H1699   1.084       .  S
C1695      C1696   1.410       .  A
C1695      O1700   1.371       .  S
C1696      C1697   1.401       .  A
C1697      C1698   1.401       .  A
C1697      H1701   1.084       .  S
C1698      O1702   1.373       .  S
O1700      H1704   0.994       .  S
O1702      H1703   0.992       .  S
C1705      C1706   1.401       .  A
C1705      C1710   1.408       .  A
C1706      C1707   1.396       .  A
C1706      H1711   1.084       .  S
C1707      C1708   1.404       .  A
C1707      O1712   1.371       .  S
C1708      C1709   1.403       .  A
C1709      C1710   1.402       .  A
C1709      H1713   1.084       .  S
C1710      O1714   1.372       .  S
O1712      H1716   0.991       .  S
O1714      H1715   0.990       .  S
C1717      C1718   1.402       .  A
C1717      C1722   1.409       .  A
C1718      C1719   1.403       .  A
C1718      H1723   1.083       .  S
C1719      C1720   1.406       .  A
C1719      O1724   1.370       .  S
C1720      C1721   1.400       .  A
C1721      C1722   1.404       .  A
C1721      H1725   1.082       .  S
C1722      O1726   1.374       .  S
O1724      H1728   0.992       .  S
O1726      H1727   0.992       .  S
C1729      C1730   1.402       .  A
C1729      C1734   1.413       .  A
C1730      C1731   1.398       .  A
C1730      H1735   1.076       .  S
C1731      C1732   1.408       .  A
C1731      O1736   1.372       .  S
C1732      C1733   1.405       .  A
C1733      C1734   1.402       .  A
C1733      H1737   1.083       .  S
C1734      O1738   1.371       .  S
O1736      H1740   0.992       .  S
O1738      H1739   0.991       .  S
C1741      C1742   1.405       .  A
C1741      C1746   1.404       .  A
C1742      C1743   1.405       .  A
C1742      H1747   1.082       .  S
C1743      C1744   1.407       .  A
C1743      O1748   1.371       .  S
C1744      C1745   1.402       .  A
C1745      C1746   1.399       .  A
C1745      H1749   1.078       .  S
C1746      O1750   1.372       .  S
O1748      H1752   0.991       .  S
O1750      H1751   0.992       .  S
C1753      C1754   1.404       .  A
C1753      C1758   1.407       .  A
C1754      C1755   1.406       .  A
C1754      H1759   1.084       .  S
C1755      C1756   1.413       .  A
C1755      O1760   1.371       .  S
C1756      C1757   1.403       .  A
C1757      C1758   1.395       .  A
C1757      H1761   1.080       .  S
C1758      O1762   1.372       .  S
O1760      H1764   0.992       .  S
O1762      H1763   0.992       .  S
C1765      C1766   1.410       .  A
C1765      C1770   1.414       .  A
C1766      C1767   1.405       .  A
C1766      H1771   1.081       .  S
C1767      C1768   1.407       .  A
C1767      O1772   1.369       .  S
C1768      C1769   1.399       .  A
C1769      C1770   1.400       .  A
C1769      H1773   1.084       .  S
C1770      O1774   1.371       .  S
O1772      H1776   0.991       .  S
O1774      H1775   0.992       .  S
C1777      C1778   1.401       .  A
C1777      C1782   1.407       .  A
C1778      C1779   1.399       .  A
C1778      H1783   1.083       .  S
C1779      C1780   1.405       .  A
C1779      O1784   1.371       .  S
C1780      C1781   1.403       .  A
C1781      C1782   1.406       .  A
C1781      H1785   1.084       .  S
C1782      O1786   1.374       .  S
O1784      H1788   0.992       .  S
O1786      H1787   0.991       .  S
C1789      H1790   1.111       .  S
C1789      C1795   1.544       .  S
C1789      C1794   1.545       .  S
C1789      C1793   1.540       .  S
C1791      H1792   1.107       .  S
C1791      C1797   1.537       .  S
C1791      C1796   1.534       .  S
C1791      C1798   1.543       .  S
C1793      C1796   1.364       .  D
C1793      C2316   1.479       .  S
C1794      C1797   1.378       .  D
C1794      C2325   1.491       .  S
C1795      C1798   1.380       .  D
C1795      C2340   1.486       .  S
C1796      C2373   1.479       .  S
C1797      C2352   1.494       .  S
C1798      C2361   1.502       .  S
C1799      H1800   1.111       .  S
C1799      C1805   1.532       .  S
C1799      C1804   1.528       .  S
C1799      C1803   1.536       .  S
C1801      H1802   1.110       .  S
C1801      C1807   1.542       .  S
C1801      C1806   1.548       .  S
C1801      C1808   1.543       .  S
C1803      C1806   1.377       .  D
C1803      C2277   1.485       .  S
C1804      C1807   1.367       .  D
C1804      C2304   1.474       .  S
C1805      C1808   1.372       .  D
C1805      C2292   1.490       .  S
C1806      C2268   1.495       .  S
C1807      C2337   1.481       .  S
C1808      C2256   1.475       .  S
C1809      H1810   1.111       .  S
C1809      C1815   1.541       .  S
C1809      C1814   1.546       .  S
C1809      C1813   1.544       .  S
C1811      H1812   1.111       .  S
C1811      C1817   1.540       .  S
C1811      C1816   1.539       .  S
C1811      C1818   1.533       .  S
C1813      C1816   1.375       .  D
C1813      C2193   1.483       .  S
C1814      C1817   1.380       .  D
C1814      C2265   1.500       .  S
C1815      C1818   1.366       .  D
C1815      C2208   1.475       .  S
C1816      C2217   1.496       .  S
C1817      C2232   1.486       .  S
C1818      C2241   1.485       .  S
C1819      H1820   1.111       .  S
C1819      C1825   1.538       .  S
C1819      C1824   1.538       .  S
C1819      C1823   1.534       .  S
C1821      H1822   1.110       .  S
C1821      C1827   1.540       .  S
C1821      C1826   1.545       .  S
C1821      C1828   1.537       .  S
C1823      C1826   1.377       .  D
C1823      C2181   1.489       .  S
C1824      C1827   1.371       .  D
C1824      C2157   1.490       .  S
C1825      C1828   1.373       .  D
C1825      C2169   1.479       .  S
C1826      C2328   1.486       .  S
C1827      C2205   1.481       .  S
C1828      C2145   1.488       .  S
C1829      H1830   1.111       .  S
C1829      C1835   1.540       .  S
C1829      C1834   1.539       .  S
C1829      C1833   1.546       .  S
C1831      H1832   1.112       .  S
C1831      C1837   1.530       .  S
C1831      C1836   1.533       .  S
C1831      C1838   1.532       .  S
C1833      C1836   1.377       .  D
C1833      C2148   1.484       .  S
C1834      C1837   1.370       .  D
C1834      C2097   1.483       .  S
C1835      C1838   1.370       .  D
C1835      C2085   1.477       .  S
C1836      C2136   1.492       .  S
C1837      C2121   1.476       .  S
C1838      C2109   1.482       .  S
C1839      H1840   1.110       .  S
C1839      C1845   1.537       .  S
C1839      C1844   1.535       .  S
C1839      C1843   1.536       .  S
C1841      H1842   1.108       .  S
C1841      C1847   1.542       .  S
C1841      C1846   1.543       .  S
C1841      C1848   1.543       .  S
C1843      C1846   1.376       .  D
C1843      C2061   1.492       .  S
C1844      C1847   1.375       .  D
C1844      C2052   1.477       .  S
C1845      C1848   1.373       .  D
C1845      C2076   1.494       .  S
C1846      C2100   1.485       .  S
C1847      C2037   1.497       .  S
C1848      C2313   1.483       .  S
C1849      H1850   1.111       .  S
C1849      C1855   1.533       .  S
C1849      C1854   1.535       .  S
C1849      C1853   1.534       .  S
C1851      H1852   1.111       .  S
C1851      C1857   1.537       .  S
C1851      C1856   1.541       .  S
C1851      C1858   1.537       .  S
C1853      C1856   1.373       .  D
C1853      C2016   1.488       .  S
C1854      C1857   1.374       .  D
C1854      C2004   1.487       .  S
C1855      C1858   1.367       .  D
C1855      C2028   1.476       .  S
C1856      C1989   1.479       .  S
C1857      C2088   1.477       .  S
C1858      C2196   1.477       .  S
C1859      H1860   1.111       .  S
C1859      C1865   1.541       .  S
C1859      C1864   1.538       .  S
C1859      C1863   1.535       .  S
C1861      H1862   1.111       .  S
C1861      C1867   1.536       .  S
C1861      C1866   1.531       .  S
C1861      C1868   1.536       .  S
C1863      C1866   1.367       .  D
C1863      C2253   1.476       .  S
C1864      C1867   1.375       .  D
C1864      C1992   1.477       .  S
C1865      C1868   1.378       .  D
C1865      C2040   1.489       .  S
C1866      C1977   1.476       .  S
C1867      C1953   1.488       .  S
C1868      C1965   1.489       .  S
O1869      V1877   1.882       .  S
O1869      C1879   1.261       .  A
O1870      V3069   1.893   1_565  S
O1870      C1880   1.263       .  A
O1871      V4261   1.889       .  S
O1871      C1881   1.261       .  A
O1872      C1882   1.265       .  A
O1873      C1882   1.265       .  A
O1874      V4262   1.911       .  S
O1874      C1881   1.266       .  A
O1875      V3070   1.908       .  S
O1875      C1880   1.267       .  A
O1876      V1878   1.914       .  S
O1876      C1879   1.266       .  A
V1877      O3062   1.894   1_455  S
V1877      O4255   1.888   1_455  S
V1877      V1878   2.089       .  T
V1878      O4258   1.907   1_455  S
V1878      O3067   1.909   1_455  S
C1879      C2025   1.469       .  S
C1880      C2073   1.478       .  S
C1881      C1980   1.468       .  S
C1882      C2133   1.479       .  S
O1883      C1893   1.263       .  A
O1884      V4275   1.896       .  S
O1884      C1894   1.263       .  A
O1885      V3083   1.892   1_565  S
O1885      C1895   1.262       .  A
O1886      V1891   1.899       .  S
O1886      C1896   1.264       .  A
O1887      V1892   1.905       .  S
O1887      C1896   1.265       .  A
O1888      V3084   1.912   1_565  S
O1888      C1895   1.265       .  A
O1889      V4276   1.911       .  S
O1889      C1894   1.267       .  A
O1890      C1893   1.265       .  A
V1891      O4268   1.892   1_455  S
V1891      O3077   1.890   1_455  S
V1891      V1892   2.089       .  T
V1892      O3080   1.907   1_455  S
V1892      O4273   1.915   1_455  S
C1893      C2172   1.470       .  S
C1894      C2289   1.480       .  S
C1895      C2376   1.468       .  S
C1896      C2220   1.473       .  S
O1897      C1907   1.265       .  A
O1898      V1905   1.911       .  S
O1898      C1908   1.267       .  A
O1899      C1909   1.266       .  A
O1900      C1910   1.267       .  A
O1901      C1910   1.262       .  A
O1902      C1909   1.262       .  A
O1903      V1906   1.897       .  S
O1903      C1908   1.265       .  A
O1904      C1907   1.266       .  A
V1905      V1906   2.078       .  T
C1907      C2184   1.477       .  S
C1908      C2013   1.477       .  S
C1909      C2124   1.467       .  S
C1910      C2229   1.472       .  S
O1911      V4303   1.899       .  S
O1911      C1921   1.264       .  A
O1912      C1922   1.261       .  A
O1913      V1919   1.890       .  S
O1913      C1923   1.263       .  A
O1914      V3707   1.890   1_556  S
O1914      C1924   1.262       .  A
O1915      V3708   1.908   1_556  S
O1915      C1924   1.265       .  A
O1916      V1920   1.903       .  S
O1916      C1923   1.264       .  A
O1917      C1922   1.267       .  A
O1918      V4304   1.909       .  S
O1918      C1921   1.266       .  A
V1919      O4295   1.898   1_455  S
V1919      O3702   1.888   1_455  S
V1919      V1920   2.087       .  T
V1920      O3703   1.908   1_455  S
V1920      O4302   1.911   1_455  S
C1921      C1968   1.480       .  S
C1922      C2244   1.474       .  S
C1923      C2001   1.470       .  S
C1924      C2301   1.467       .  S
O1925      C1935   1.263       .  A
O1926      V1933   1.891       .  S
O1926      C1936   1.263       .  A
O1927      C1937   1.263       .  A
O1928      C1938   1.264       .  A
O1929      C1938   1.267       .  A
O1930      C1937   1.267       .  A
O1931      V1934   1.908       .  S
O1931      C1936   1.266       .  A
O1932      C1935   1.268       .  A
V1933      V1934   2.079       .  T
C1935      C2349   1.478       .  S
C1936      C1956   1.473       .  S
C1937      C2064   1.474       .  S
C1938      C2280   1.475       .  S
O1939      V3735   1.891   1_556  S
O1939      C1949   1.263       .  A
O1940      V1947   1.881       .  S
O1940      C1950   1.260       .  A
O1941      C1951   1.264       .  A
O1942      V4331   1.893       .  S
O1942      C1952   1.263       .  A
O1943      V4332   1.904       .  S
O1943      C1952   1.263       .  A
O1944      C1951   1.266       .  A
O1945      V1948   1.918       .  S
O1945      C1950   1.269       .  A
O1946      V3736   1.910       .  S
O1946      C1949   1.266       .  A
V1947      O3727   1.888   1_455  S
V1947      O4326   1.894   1_455  S
V1947      V1948   2.084       .  T
V1948      O4327   1.905   1_455  S
V1948      O3734   1.915   1_455  S
C1949      C2364   1.475       .  S
C1950      C2112   1.475       .  S
C1951      C2160   1.476       .  S
C1952      C2049   1.463       .  S
C1953      C1954   1.403       .  A
C1953      C1958   1.412       .  A
C1954      C1955   1.396       .  A
C1954      H1959   1.083       .  S
C1955      C1956   1.407       .  A
C1955      O1960   1.373       .  S
C1956      C1957   1.402       .  A
C1957      C1958   1.405       .  A
C1957      H1961   1.083       .  S
C1958      O1962   1.371       .  S
O1960      H1964   0.992       .  S
O1962      H1963   0.992       .  S
C1965      C1966   1.403       .  A
C1965      C1970   1.411       .  A
C1966      C1967   1.399       .  A
C1966      H1971   1.084       .  S
C1967      C1968   1.409       .  A
C1967      O1972   1.372       .  S
C1968      C1969   1.405       .  A
C1969      C1970   1.405       .  A
C1969      H1973   1.084       .  S
C1970      O1974   1.371       .  S
O1972      H1976   0.992       .  S
O1974      H1975   0.991       .  S
C1977      C1978   1.399       .  A
C1977      C1982   1.408       .  A
C1978      C1979   1.397       .  A
C1978      H1983   1.083       .  S
C1979      C1980   1.407       .  A
C1979      O1984   1.371       .  S
C1980      C1981   1.400       .  A
C1981      C1982   1.405       .  A
C1981      H1985   1.084       .  S
C1982      O1986   1.372       .  S
O1984      H1988   0.992       .  S
O1986      H1987   0.992       .  S
C1989      C1990   1.401       .  A
C1989      C1994   1.408       .  A
C1990      C1991   1.397       .  A
C1990      H1995   1.081       .  S
C1991      C1992   1.406       .  A
C1991      O1996   1.372       .  S
C1992      C1993   1.402       .  A
C1993      C1994   1.401       .  A
C1993      H1997   1.084       .  S
C1994      O1998   1.372       .  S
O1996      H2000   0.992       .  S
O1998      H1999   0.992       .  S
C2001      C2002   1.400       .  A
C2001      C2006   1.407       .  A
C2002      C2003   1.395       .  A
C2002      H2007   1.084       .  S
C2003      C2004   1.409       .  A
C2003      O2008   1.370       .  S
C2004      C2005   1.405       .  A
C2005      C2006   1.401       .  A
C2005      H2009   1.076       .  S
C2006      O2010   1.372       .  S
O2008      H2012   0.992       .  S
O2010      H2011   0.992       .  S
C2013      C2014   1.402       .  A
C2013      C2018   1.409       .  A
C2014      C2015   1.400       .  A
C2014      H2019   1.084       .  S
C2015      C2016   1.407       .  A
C2015      O2020   1.373       .  S
C2016      C2017   1.406       .  A
C2017      C2018   1.404       .  A
C2017      H2021   1.083       .  S
C2018      O2022   1.372       .  S
O2020      H2024   0.992       .  S
O2022      H2023   0.992       .  S
C2025      C2026   1.400       .  A
C2025      C2030   1.407       .  A
C2026      C2027   1.392       .  A
C2026      H2031   1.082       .  S
C2027      C2028   1.403       .  A
C2027      O2032   1.373       .  S
C2028      C2029   1.406       .  A
C2029      C2030   1.407       .  A
C2029      H2033   1.083       .  S
C2030      O2034   1.371       .  S
O2032      H2036   0.992       .  S
O2034      H2035   0.992       .  S
C2037      C2038   1.406       .  A
C2037      C2042   1.409       .  A
C2038      C2039   1.403       .  A
C2038      H2043   1.077       .  S
C2039      C2040   1.407       .  A
C2039      O2044   1.373       .  S
C2040      C2041   1.400       .  A
C2041      C2042   1.397       .  A
C2041      H2045   1.078       .  S
C2042      O2046   1.368       .  S
O2044      H2048   0.992       .  S
O2046      H2047   0.992       .  S
C2049      C2050   1.401       .  A
C2049      C2054   1.403       .  A
C2050      C2051   1.400       .  A
C2050      H2055   1.083       .  S
C2051      C2052   1.405       .  A
C2051      O2056   1.372       .  S
C2052      C2053   1.403       .  A
C2053      C2054   1.398       .  A
C2053      H2057   1.082       .  S
C2054      O2058   1.371       .  S
O2056      H2060   0.992       .  S
O2058      H2059   0.991       .  S
C2061      C2062   1.407       .  A
C2061      C2066   1.409       .  A
C2062      C2063   1.404       .  A
C2062      H2067   1.083       .  S
C2063      C2064   1.409       .  A
C2063      O2068   1.371       .  S
C2064      C2065   1.398       .  A
C2065      C2066   1.397       .  A
C2065      H2069   1.084       .  S
C2066      O2070   1.368       .  S
O2068      H2072   0.989       .  S
O2070      H2071   0.992       .  S
C2073      C2074   1.403       .  A
C2073      C2078   1.406       .  A
C2074      C2075   1.401       .  A
C2074      H2079   1.084       .  S
C2075      C2076   1.411       .  A
C2075      O2080   1.372       .  S
C2076      C2077   1.405       .  A
C2077      C2078   1.401       .  A
C2077      H2081   1.078       .  S
C2078      O2082   1.371       .  S
O2080      H2084   0.992       .  S
O2082      H2083   0.984       .  S
C2085      C2086   1.401       .  A
C2085      C2090   1.406       .  A
C2086      C2087   1.403       .  A
C2086      H2091   1.083       .  S
C2087      C2088   1.407       .  A
C2087      O2092   1.375       .  S
C2088      C2089   1.401       .  A
C2089      C2090   1.400       .  A
C2089      H2093   1.082       .  S
C2090      O2094   1.372       .  S
O2092      H2096   0.992       .  S
O2094      H2095   0.992       .  S
C2097      C2098   1.401       .  A
C2097      C2102   1.409       .  A
C2098      C2099   1.400       .  A
C2098      H2103   1.084       .  S
C2099      C2100   1.408       .  A
C2099      O2104   1.371       .  S
C2100      C2101   1.404       .  A
C2101      C2102   1.402       .  A
C2101      H2105   1.084       .  S
C2102      O2106   1.373       .  S
O2104      H2108   0.992       .  S
O2106      H2107   0.992       .  S
C2109      C2110   1.399       .  A
C2109      C2114   1.410       .  A
C2110      C2111   1.395       .  A
C2110      H2115   1.084       .  S
C2111      C2112   1.410       .  A
C2111      O2116   1.373       .  S
C2112      C2113   1.403       .  A
C2113      C2114   1.406       .  A
C2113      H2117   1.084       .  S
C2114      O2118   1.370       .  S
O2116      H2120   0.992       .  S
O2118      H2119   0.992       .  S
C2121      C2122   1.400       .  A
C2121      C2126   1.409       .  A
C2122      C2123   1.394       .  A
C2122      H2127   1.084       .  S
C2123      C2124   1.406       .  A
C2123      O2128   1.372       .  S
C2124      C2125   1.403       .  A
C2125      C2126   1.401       .  A
C2125      H2129   1.083       .  S
C2126      O2130   1.372       .  S
O2128      H2132   0.992       .  S
O2130      H2131   0.992       .  S
C2133      C2134   1.404       .  A
C2133      C2138   1.408       .  A
C2134      C2135   1.405       .  A
C2134      H2139   1.084       .  S
C2135      C2136   1.411       .  A
C2135      O2140   1.372       .  S
C2136      C2137   1.405       .  A
C2137      C2138   1.399       .  A
C2137      H2141   1.084       .  S
C2138      O2142   1.372       .  S
O2140      H2144   0.992       .  S
O2142      H2143   0.992       .  S
C2145      C2146   1.401       .  A
C2145      C2150   1.410       .  A
C2146      C2147   1.396       .  A
C2146      H2151   1.077       .  S
C2147      C2148   1.404       .  A
C2147      O2152   1.369       .  S
C2148      C2149   1.404       .  A
C2149      C2150   1.407       .  A
C2149      H2153   1.084       .  S
C2150      O2154   1.372       .  S
O2152      H2156   0.992       .  S
O2154      H2155   0.992       .  S
C2157      C2158   1.404       .  A
C2157      C2162   1.409       .  A
C2158      C2159   1.402       .  A
C2158      H2163   1.078       .  S
C2159      C2160   1.407       .  A
C2159      O2164   1.371       .  S
C2160      C2161   1.402       .  A
C2161      C2162   1.400       .  A
C2161      H2165   1.084       .  S
C2162      O2166   1.371       .  S
O2164      H2168   0.994       .  S
O2166      H2167   0.992       .  S
C2169      C2170   1.402       .  A
C2169      C2174   1.406       .  A
C2170      C2171   1.399       .  A
C2170      H2175   1.082       .  S
C2171      C2172   1.405       .  A
C2171      O2176   1.372       .  S
C2172      C2173   1.403       .  A
C2173      C2174   1.403       .  A
C2173      H2177   1.084       .  S
C2174      O2178   1.372       .  S
O2176      H2180   0.992       .  S
O2178      H2179   0.992       .  S
C2181      C2182   1.402       .  A
C2181      C2186   1.410       .  A
C2182      C2183   1.396       .  A
C2182      H2187   1.080       .  S
C2183      C2184   1.405       .  A
C2183      O2188   1.372       .  S
C2184      C2185   1.406       .  A
C2185      C2186   1.408       .  A
C2185      H2189   1.084       .  S
C2186      O2190   1.372       .  S
O2188      H2192   0.992       .  S
O2190      H2191   0.991       .  S
C2193      C2194   1.401       .  A
C2193      C2198   1.408       .  A
C2194      C2195   1.396       .  A
C2194      H2199   1.078       .  S
C2195      C2196   1.403       .  A
C2195      O2200   1.372       .  S
C2196      C2197   1.404       .  A
C2197      C2198   1.404       .  A
C2197      H2201   1.084       .  S
C2198      O2202   1.372       .  S
O2200      H2204   0.992       .  S
O2202      H2203   0.992       .  S
C2205      C2206   1.401       .  A
C2205      C2210   1.409       .  A
C2206      C2207   1.401       .  A
C2206      H2211   1.084       .  S
C2207      C2208   1.406       .  A
C2207      O2212   1.371       .  S
C2208      C2209   1.399       .  A
C2209      C2210   1.403       .  A
C2209      H2213   1.084       .  S
C2210      O2214   1.373       .  S
O2212      H2216   0.992       .  S
O2214      H2215   0.992       .  S
C2217      C2218   1.405       .  A
C2217      C2222   1.415       .  A
C2218      C2219   1.399       .  A
C2218      H2223   1.082       .  S
C2219      C2220   1.405       .  A
C2219      O2224   1.372       .  S
C2220      C2221   1.400       .  A
C2221      C2222   1.406       .  A
C2221      H2225   1.084       .  S
C2222      O2226   1.372       .  S
O2224      H2228   0.992       .  S
O2226      H2227   0.993       .  S
C2229      C2230   1.402       .  A
C2229      C2234   1.406       .  A
C2230      C2231   1.405       .  A
C2230      H2235   1.081       .  S
C2231      C2232   1.410       .  A
C2231      O2236   1.372       .  S
C2232      C2233   1.403       .  A
C2233      C2234   1.396       .  A
C2233      H2237   1.081       .  S
C2234      O2238   1.373       .  S
O2236      H2240   0.992       .  S
O2238      H2239   0.992       .  S
C2241      C2242   1.403       .  A
C2241      C2246   1.407       .  A
C2242      C2243   1.403       .  A
C2242      H2247   1.083       .  S
C2243      C2244   1.407       .  A
C2243      O2248   1.372       .  S
C2244      C2245   1.403       .  A
C2245      C2246   1.406       .  A
C2245      H2249   1.084       .  S
C2246      O2250   1.373       .  S
O2248      H2252   0.992       .  S
O2250      H2251   0.992       .  S
C2253      C2254   1.400       .  A
C2253      C2258   1.406       .  A
C2254      C2255   1.400       .  A
C2254      H2259   1.081       .  S
C2255      C2256   1.404       .  A
C2255      O2260   1.374       .  S
C2256      C2257   1.402       .  A
C2257      C2258   1.400       .  A
C2257      H2261   1.084       .  S
C2258      O2262   1.370       .  S
O2260      H2264   0.992       .  S
O2262      H2263   0.992       .  S
C2265      C2266   1.404       .  A
C2265      C2270   1.412       .  A
C2266      C2267   1.401       .  A
C2266      H2271   1.075       .  S
C2267      C2268   1.407       .  A
C2267      O2272   1.372       .  S
C2268      C2269   1.406       .  A
C2269      C2270   1.406       .  A
C2269      H2273   1.083       .  S
C2270      O2274   1.371       .  S
O2272      H2276   0.992       .  S
O2274      H2275   0.991       .  S
C2277      C2278   1.404       .  A
C2277      C2282   1.408       .  A
C2278      C2279   1.405       .  A
C2278      H2283   1.084       .  S
C2279      C2280   1.409       .  A
C2279      O2284   1.370       .  S
C2280      C2281   1.400       .  A
C2281      C2282   1.399       .  A
C2281      H2285   1.084       .  S
C2282      O2286   1.371       .  S
O2284      H2288   0.990       .  S
O2286      H2287   0.992       .  S
C2289      C2290   1.403       .  A
C2289      C2294   1.408       .  A
C2290      C2291   1.408       .  A
C2290      H2295   1.084       .  S
C2291      C2292   1.412       .  A
C2291      O2296   1.371       .  S
C2292      C2293   1.401       .  A
C2293      C2294   1.400       .  A
C2293      H2297   1.084       .  S
C2294      O2298   1.372       .  S
O2296      H2300   0.994       .  S
O2298      H2299   0.992       .  S
C2301      C2302   1.401       .  A
C2301      C2306   1.407       .  A
C2302      C2303   1.396       .  A
C2302      H2307   1.084       .  S
C2303      C2304   1.404       .  A
C2303      O2308   1.371       .  S
C2304      C2305   1.403       .  A
C2305      C2306   1.405       .  A
C2305      H2309   1.084       .  S
C2306      O2310   1.373       .  S
O2308      H2312   0.992       .  S
O2310      H2311   0.991       .  S
C2313      C2314   1.402       .  A
C2313      C2318   1.408       .  A
C2314      C2315   1.402       .  A
C2314      H2319   1.083       .  S
C2315      C2316   1.406       .  A
C2315      O2320   1.371       .  S
C2316      C2317   1.399       .  A
C2317      C2318   1.402       .  A
C2317      H2321   1.082       .  S
C2318      O2322   1.373       .  S
O2320      H2324   0.992       .  S
O2322      H2323   0.992       .  S
C2325      C2326   1.402       .  A
C2325      C2330   1.410       .  A
C2326      C2327   1.398       .  A
C2326      H2331   1.076       .  S
C2327      C2328   1.407       .  A
C2327      O2332   1.372       .  S
C2328      C2329   1.405       .  A
C2329      C2330   1.402       .  A
C2329      H2333   1.083       .  S
C2330      O2334   1.371       .  S
O2332      H2336   0.992       .  S
O2334      H2335   0.992       .  S
C2337      C2338   1.404       .  A
C2337      C2342   1.404       .  A
C2338      C2339   1.406       .  A
C2338      H2343   1.083       .  S
C2339      C2340   1.407       .  A
C2339      O2344   1.372       .  S
C2340      C2341   1.403       .  A
C2341      C2342   1.399       .  A
C2341      H2345   1.079       .  S
C2342      O2346   1.372       .  S
O2344      H2348   0.991       .  S
O2346      H2347   0.992       .  S
C2349      C2350   1.404       .  A
C2349      C2354   1.407       .  A
C2350      C2351   1.407       .  A
C2350      H2355   1.084       .  S
C2351      C2352   1.414       .  A
C2351      O2356   1.371       .  S
C2352      C2353   1.403       .  A
C2353      C2354   1.396       .  A
C2353      H2357   1.082       .  S
C2354      O2358   1.372       .  S
O2356      H2360   0.992       .  S
O2358      H2359   0.992       .  S
C2361      C2362   1.410       .  A
C2361      C2366   1.415       .  A
C2362      C2363   1.404       .  A
C2362      H2367   1.080       .  S
C2363      C2364   1.405       .  A
C2363      O2368   1.369       .  S
C2364      C2365   1.397       .  A
C2365      C2366   1.398       .  A
C2365      H2369   1.084       .  S
C2366      O2370   1.371       .  S
O2368      H2372   0.991       .  S
O2370      H2371   0.992       .  S
C2373      C2374   1.401       .  A
C2373      C2378   1.407       .  A
C2374      C2375   1.399       .  A
C2374      H2379   1.083       .  S
C2375      C2376   1.405       .  A
C2375      O2380   1.371       .  S
C2376      C2377   1.402       .  A
C2377      C2378   1.406       .  A
C2377      H2381   1.084       .  S
C2378      O2382   1.375       .  S
O2380      H2384   0.992       .  S
O2382      H2383   0.991       .  S
C2385      H2386   1.111       .  S
C2385      C2391   1.545       .  S
C2385      C2390   1.547       .  S
C2385      C2389   1.541       .  S
C2387      H2388   1.109       .  S
C2387      C2393   1.536       .  S
C2387      C2392   1.535       .  S
C2387      C2394   1.541       .  S
C2389      C2392   1.365       .  D
C2389      C2912   1.481       .  S
C2390      C2393   1.379       .  D
C2390      C2921   1.493       .  S
C2391      C2394   1.378       .  D
C2391      C2936   1.487       .  S
C2392      C2969   1.480       .  S
C2393      C2948   1.494       .  S
C2394      C2957   1.498       .  S
C2395      H2396   1.111       .  S
C2395      C2401   1.535       .  S
C2395      C2400   1.530       .  S
C2395      C2399   1.536       .  S
C2397      H2398   1.110       .  S
C2397      C2403   1.541       .  S
C2397      C2402   1.546       .  S
C2397      C2404   1.542       .  S
C2399      C2402   1.375       .  D
C2399      C2873   1.484       .  S
C2400      C2403   1.366       .  D
C2400      C2900   1.473       .  S
C2401      C2404   1.374       .  D
C2401      C2888   1.493       .  S
C2402      C2864   1.491       .  S
C2403      C2933   1.483       .  S
C2404      C2852   1.476       .  S
C2405      H2406   1.111       .  S
C2405      C2411   1.543       .  S
C2405      C2410   1.546       .  S
C2405      C2409   1.546       .  S
C2407      H2408   1.111       .  S
C2407      C2413   1.539       .  S
C2407      C2412   1.539       .  S
C2407      C2414   1.534       .  S
C2409      C2412   1.376       .  D
C2409      C2789   1.484       .  S
C2410      C2413   1.379       .  D
C2410      C2861   1.500       .  S
C2411      C2414   1.367       .  D
C2411      C2804   1.478       .  S
C2412      C2813   1.499       .  S
C2413      C2828   1.484       .  S
C2414      C2837   1.486       .  S
C2415      H2416   1.111       .  S
C2415      C2421   1.538       .  S
C2415      C2420   1.540       .  S
C2415      C2419   1.536       .  S
C2417      H2418   1.110       .  S
C2417      C2423   1.541       .  S
C2417      C2422   1.547       .  S
C2417      C2424   1.537       .  S
C2419      C2422   1.378       .  D
C2419      C2777   1.494       .  S
C2420      C2423   1.374       .  D
C2420      C2753   1.496       .  S
C2421      C2424   1.373       .  D
C2421      C2765   1.479       .  S
C2422      C2924   1.488       .  S
C2423      C2801   1.484       .  S
C2424      C2741   1.489       .  S
C2425      H2426   1.111       .  S
C2425      C2431   1.538       .  S
C2425      C2430   1.539       .  S
C2425      C2429   1.545       .  S
C2427      H2428   1.112       .  S
C2427      C2433   1.530       .  S
C2427      C2432   1.531       .  S
C2427      C2434   1.531       .  S
C2429      C2432   1.375       .  D
C2429      C2744   1.481       .  S
C2430      C2433   1.372       .  D
C2430      C2693   1.482       .  S
C2431      C2434   1.368       .  D
C2431      C2681   1.475       .  S
C2432      C2732   1.490       .  S
C2433      C2717   1.477       .  S
C2434      C2705   1.479       .  S
C2435      H2436   1.111       .  S
C2435      C2441   1.539       .  S
C2435      C2440   1.534       .  S
C2435      C2439   1.533       .  S
C2437      H2438   1.107       .  S
C2437      C2443   1.548       .  S
C2437      C2442   1.540       .  S
C2437      C2444   1.543       .  S
C2439      C2442   1.371       .  D
C2439      C2657   1.483       .  S
C2440      C2443   1.378       .  D
C2440      C2648   1.483       .  S
C2441      C2444   1.374       .  D
C2441      C2672   1.492       .  S
C2442      C2696   1.484       .  S
C2443      C2633   1.497       .  S
C2444      C2909   1.486       .  S
C2445      H2446   1.111       .  S
C2445      C2451   1.533       .  S
C2445      C2450   1.536       .  S
C2445      C2449   1.534       .  S
C2447      H2448   1.111       .  S
C2447      C2453   1.538       .  S
C2447      C2452   1.541       .  S
C2447      C2454   1.538       .  S
C2449      C2452   1.374       .  D
C2449      C2612   1.486       .  S
C2450      C2453   1.373       .  D
C2450      C2600   1.491       .  S
C2451      C2454   1.368       .  D
C2451      C2624   1.477       .  S
C2452      C2585   1.480       .  S
C2453      C2684   1.476       .  S
C2454      C2792   1.477       .  S
C2455      H2456   1.110       .  S
C2455      C2461   1.542       .  S
C2455      C2460   1.538       .  S
C2455      C2459   1.535       .  S
C2457      H2458   1.111       .  S
C2457      C2463   1.537       .  S
C2457      C2462   1.533       .  S
C2457      C2464   1.539       .  S
C2459      C2462   1.367       .  D
C2459      C2849   1.481       .  S
C2460      C2463   1.376       .  D
C2460      C2588   1.480       .  S
C2461      C2464   1.379       .  D
C2461      C2636   1.489       .  S
C2462      C2573   1.476       .  S
C2463      C2549   1.490       .  S
C2464      C2561   1.492       .  S
O2465      V2473   1.882       .  S
O2465      C2475   1.261       .  A
O2466      C2476   1.262       .  A
O2467      C2477   1.262       .  A
O2468      V3665   1.898       .  S
O2468      C2478   1.265       .  A
O2469      V3666   1.906       .  S
O2469      C2478   1.265       .  A
O2470      C2477   1.265       .  A
O2471      C2476   1.266       .  A
O2472      V2474   1.914   1_545  S
O2472      C2475   1.266       .  A
V2473      O3660   1.896   1_545  S
V2473      V2474   2.089   1_545  T
V2474      O3661   1.903       .  S
C2475      C2621   1.469       .  S
C2476      C2669   1.475       .  S
C2477      C2576   1.467       .  S
C2478      C2729   1.478       .  S
O2479      V3679   1.893       .  S
O2479      C2489   1.262       .  A
O2480      C2490   1.262       .  A
O2481      C2491   1.262       .  A
O2482      V2487   1.900       .  S
O2482      C2492   1.264       .  A
O2483      V2488   1.909       .  S
O2483      C2492   1.266       .  A
O2484      C2491   1.265       .  A
O2485      C2490   1.267       .  A
O2486      V3680   1.908       .  S
O2486      C2489   1.265       .  A
V2487      O3671   1.893   1_545  S
V2487      V2488   2.087       .  T
V2488      O3678   1.913   1_545  S
C2489      C2768   1.467       .  S
C2490      C2885   1.477       .  S
C2491      C2972   1.468       .  S
C2492      C2816   1.477       .  S
O2493      V4289   1.917       .  S
O2493      C2503   1.267       .  A
O2494      V2501   1.908       .  S
O2494      C2504   1.266       .  A
O2495      V3693   1.905       .  S
O2495      C2505   1.266       .  A
O2496      V3097   1.906       .  S
O2496      C2506   1.266       .  A
O2497      V3098   1.891       .  S
O2497      C2506   1.263       .  A
O2498      V3694   1.885       .  S
O2498      C2505   1.261       .  A
O2499      V2502   1.900       .  S
O2499      C2504   1.265       .  A
O2500      V4290   1.897       .  S
O2500      C2503   1.265       .  A
V2501      O4281   1.908   1_544  S
V2501      O3687   1.905   1_545  S
V2501      O3092   1.905   1_554  S
V2501      V2502   2.077       .  T
V2502      O3093   1.888   1_554  S
V2502      O3690   1.887   1_545  S
V2502      O4288   1.898   1_544  S
C2503      C2780   1.481       .  S
C2504      C2609   1.477       .  S
C2505      C2720   1.465       .  S
C2506      C2825   1.470       .  S
O2507      C2517   1.265       .  A
O2508      V3111   1.894       .  S
O2508      C2518   1.262       .  A
O2509      V2515   1.889       .  S
O2509      C2519   1.263       .  A
O2510      C2520   1.261       .  A
O2511      C2520   1.265       .  A
O2512      V2516   1.907       .  S
O2512      C2519   1.265       .  A
O2513      V3112   1.918       .  S
O2513      C2518   1.267       .  A
O2514      C2517   1.266       .  A
V2515      O3104   1.894   1_554  S
V2515      V2516   2.086       .  T
V2516      O3109   1.918   1_554  S
C2517      C2564   1.482       .  S
C2518      C2840   1.475       .  S
C2519      C2597   1.473       .  S
C2520      C2897   1.466       .  S
O2521      V4317   1.893       .  S
O2521      C2531   1.264       .  A
O2522      V2529   1.889       .  S
O2522      C2532   1.263       .  A
O2523      V3721   1.890       .  S
O2523      C2533   1.263       .  A
O2524      V3125   1.893       .  S
O2524      C2534   1.263       .  A
O2525      V3126   1.913       .  S
O2525      C2534   1.267       .  A
O2526      V3722   1.904       .  S
O2526      C2533   1.265       .  A
O2527      V2530   1.910       .  S
O2527      C2532   1.267       .  A
O2528      V4318   1.913       .  S
O2528      C2531   1.267       .  A
V2529      O4309   1.892   1_544  S
V2529      O3715   1.888   1_545  S
V2529      O3120   1.891   1_554  S
V2529      V2530   2.077       .  T
V2530      O3121   1.913   1_554  S
V2530      O3718   1.911   1_545  S
V2530      O4316   1.914   1_544  S
C2531      C2945   1.477       .  S
C2532      C2552   1.472       .  S
C2533      C2660   1.466       .  S
C2534      C2876   1.474       .  S
O2535      C2545   1.263       .  A
O2536      V2543   1.880       .  S
O2536      C2546   1.261       .  A
O2537      V3139   1.900       .  S
O2537      C2547   1.265       .  A
O2538      C2548   1.263       .  A
O2539      C2548   1.264       .  A
O2540      V3140   1.909       .  S
O2540      C2547   1.266       .  A
O2541      V2544   1.912   1_554  S
O2541      C2546   1.267       .  A
O2542      C2545   1.266       .  A
V2543      O3133   1.898   1_554  S
V2543      V2544   2.085   1_554  T
V2544      O3136   1.908       .  S
C2545      C2960   1.475       .  S
C2546      C2708   1.470       .  S
C2547      C2756   1.482       .  S
C2548      C2645   1.467       .  S
C2549      C2550   1.403       .  A
C2549      C2554   1.413       .  A
C2550      C2551   1.395       .  A
C2550      H2555   1.080       .  S
C2551      C2552   1.406       .  A
C2551      O2556   1.373       .  S
C2552      C2553   1.402       .  A
C2553      C2554   1.405       .  A
C2553      H2557   1.083       .  S
C2554      O2558   1.371       .  S
O2556      H2560   0.992       .  S
O2558      H2559   0.992       .  S
C2561      C2562   1.403       .  A
C2561      C2566   1.412       .  A
C2562      C2563   1.399       .  A
C2562      H2567   1.084       .  S
C2563      C2564   1.409       .  A
C2563      O2568   1.372       .  S
C2564      C2565   1.405       .  A
C2565      C2566   1.406       .  A
C2565      H2569   1.084       .  S
C2566      O2570   1.371       .  S
O2568      H2572   0.992       .  S
O2570      H2571   0.992       .  S
C2573      C2574   1.400       .  A
C2573      C2578   1.408       .  A
C2574      C2575   1.401       .  A
C2574      H2579   1.084       .  S
C2575      C2576   1.406       .  A
C2575      O2580   1.371       .  S
C2576      C2577   1.399       .  A
C2577      C2578   1.402       .  A
C2577      H2581   1.084       .  S
C2578      O2582   1.373       .  S
O2580      H2584   0.992       .  S
O2582      H2583   0.992       .  S
C2585      C2586   1.401       .  A
C2585      C2590   1.408       .  A
C2586      C2587   1.397       .  A
C2586      H2591   1.082       .  S
C2587      C2588   1.407       .  A
C2587      O2592   1.373       .  S
C2588      C2589   1.403       .  A
C2589      C2590   1.402       .  A
C2589      H2593   1.083       .  S
C2590      O2594   1.372       .  S
O2592      H2596   0.992       .  S
O2594      H2595   0.992       .  S
C2597      C2598   1.401       .  A
C2597      C2602   1.406       .  A
C2598      C2599   1.395       .  A
C2598      H2603   1.084       .  S
C2599      C2600   1.409       .  A
C2599      O2604   1.371       .  S
C2600      C2601   1.407       .  A
C2601      C2602   1.403       .  A
C2601      H2605   1.076       .  S
C2602      O2606   1.372       .  S
O2604      H2608   0.992       .  S
O2606      H2607   0.992       .  S
C2609      C2610   1.402       .  A
C2609      C2614   1.410       .  A
C2610      C2611   1.400       .  A
C2610      H2615   1.084       .  S
C2611      C2612   1.408       .  A
C2611      O2616   1.373       .  S
C2612      C2613   1.404       .  A
C2613      C2614   1.404       .  A
C2613      H2617   1.083       .  S
C2614      O2618   1.372       .  S
O2616      H2620   0.992       .  S
O2618      H2619   0.992       .  S
C2621      C2622   1.400       .  A
C2621      C2626   1.408       .  A
C2622      C2623   1.392       .  A
C2622      H2627   1.082       .  S
C2623      C2624   1.403       .  A
C2623      O2628   1.373       .  S
C2624      C2625   1.406       .  A
C2625      C2626   1.407       .  A
C2625      H2629   1.083       .  S
C2626      O2630   1.372       .  S
O2628      H2632   0.992       .  S
O2630      H2631   0.992       .  S
C2633      C2634   1.408       .  A
C2633      C2638   1.409       .  A
C2634      C2635   1.406       .  A
C2634      H2639   1.077       .  S
C2635      C2636   1.408       .  A
C2635      O2640   1.373       .  S
C2636      C2637   1.398       .  A
C2637      C2638   1.393       .  A
C2637      H2641   1.075       .  S
C2638      O2642   1.368       .  S
O2640      H2644   0.992       .  S
O2642      H2643   0.992       .  S
C2645      C2646   1.401       .  A
C2645      C2650   1.403       .  A
C2646      C2647   1.401       .  A
C2646      H2651   1.083       .  S
C2647      C2648   1.406       .  A
C2647      O2652   1.372       .  S
C2648      C2649   1.405       .  A
C2649      C2650   1.401       .  A
C2649      H2653   1.081       .  S
C2650      O2654   1.371       .  S
O2652      H2656   0.992       .  S
O2654      H2655   0.992       .  S
C2657      C2658   1.405       .  A
C2657      C2662   1.406       .  A
C2658      C2659   1.403       .  A
C2658      H2663   1.084       .  S
C2659      C2660   1.408       .  A
C2659      O2664   1.372       .  S
C2660      C2661   1.397       .  A
C2661      C2662   1.394       .  A
C2661      H2665   1.084       .  S
C2662      O2666   1.368       .  S
O2664      H2668   0.991       .  S
O2666      H2667   0.992       .  S
C2669      C2670   1.402       .  A
C2669      C2674   1.406       .  A
C2670      C2671   1.399       .  A
C2670      H2675   1.084       .  S
C2671      C2672   1.410       .  A
C2671      O2676   1.372       .  S
C2672      C2673   1.406       .  A
C2673      C2674   1.402       .  A
C2673      H2677   1.078       .  S
C2674      O2678   1.371       .  S
O2676      H2680   0.992       .  S
O2678      H2679   0.988       .  S
C2681      C2682   1.400       .  A
C2681      C2686   1.406       .  A
C2682      C2683   1.402       .  A
C2682      H2687   1.083       .  S
C2683      C2684   1.406       .  A
C2683      O2688   1.375       .  S
C2684      C2685   1.401       .  A
C2685      C2686   1.400       .  A
C2685      H2689   1.083       .  S
C2686      O2690   1.372       .  S
O2688      H2692   0.992       .  S
O2690      H2691   0.992       .  S
C2693      C2694   1.401       .  A
C2693      C2698   1.409       .  A
C2694      C2695   1.400       .  A
C2694      H2699   1.084       .  S
C2695      C2696   1.408       .  A
C2695      O2700   1.371       .  S
C2696      C2697   1.403       .  A
C2697      C2698   1.401       .  A
C2697      H2701   1.084       .  S
C2698      O2702   1.373       .  S
O2700      H2704   0.992       .  S
O2702      H2703   0.992       .  S
C2705      C2706   1.399       .  A
C2705      C2710   1.410       .  A
C2706      C2707   1.393       .  A
C2706      H2711   1.084       .  S
C2707      C2708   1.408       .  A
C2707      O2712   1.373       .  S
C2708      C2709   1.402       .  A
C2709      C2710   1.404       .  A
C2709      H2713   1.084       .  S
C2710      O2714   1.370       .  S
O2712      H2716   0.992       .  S
O2714      H2715   0.992       .  S
C2717      C2718   1.401       .  A
C2717      C2722   1.410       .  A
C2718      C2719   1.394       .  A
C2718      H2723   1.084       .  S
C2719      C2720   1.407       .  A
C2719      O2724   1.372       .  S
C2720      C2721   1.401       .  A
C2721      C2722   1.398       .  A
C2721      H2725   1.083       .  S
C2722      O2726   1.371       .  S
O2724      H2728   0.992       .  S
O2726      H2727   0.992       .  S
C2729      C2730   1.405       .  A
C2729      C2734   1.408       .  A
C2730      C2731   1.406       .  A
C2730      H2735   1.084       .  S
C2731      C2732   1.411       .  A
C2731      O2736   1.372       .  S
C2732      C2733   1.403       .  A
C2733      C2734   1.398       .  A
C2733      H2737   1.084       .  S
C2734      O2738   1.372       .  S
O2736      H2740   0.992       .  S
O2738      H2739   0.992       .  S
C2741      C2742   1.402       .  A
C2741      C2746   1.410       .  A
C2742      C2743   1.395       .  A
C2742      H2747   1.078       .  S
C2743      C2744   1.403       .  A
C2743      O2748   1.370       .  S
C2744      C2745   1.403       .  A
C2745      C2746   1.405       .  A
C2745      H2749   1.084       .  S
C2746      O2750   1.371       .  S
O2748      H2752   0.992       .  S
O2750      H2751   0.992       .  S
C2753      C2754   1.406       .  A
C2753      C2758   1.411       .  A
C2754      C2755   1.403       .  A
C2754      H2759   1.077       .  S
C2755      C2756   1.408       .  A
C2755      O2760   1.371       .  S
C2756      C2757   1.403       .  A
C2757      C2758   1.402       .  A
C2757      H2761   1.084       .  S
C2758      O2762   1.372       .  S
O2760      H2764   0.988       .  S
O2762      H2763   0.992       .  S
C2765      C2766   1.402       .  A
C2765      C2770   1.406       .  A
C2766      C2767   1.398       .  A
C2766      H2771   1.081       .  S
C2767      C2768   1.404       .  A
C2767      O2772   1.372       .  S
C2768      C2769   1.403       .  A
C2769      C2770   1.403       .  A
C2769      H2773   1.084       .  S
C2770      O2774   1.372       .  S
O2772      H2776   0.992       .  S
O2774      H2775   0.992       .  S
C2777      C2778   1.402       .  A
C2777      C2782   1.412       .  A
C2778      C2779   1.395       .  A
C2778      H2783   1.078       .  S
C2779      C2780   1.405       .  A
C2779      O2784   1.372       .  S
C2780      C2781   1.407       .  A
C2781      C2782   1.411       .  A
C2781      H2785   1.084       .  S
C2782      O2786   1.371       .  S
O2784      H2788   0.992       .  S
O2786      H2787   0.991       .  S
C2789      C2790   1.402       .  A
C2789      C2794   1.408       .  A
C2790      C2791   1.397       .  A
C2790      H2795   1.077       .  S
C2791      C2792   1.404       .  A
C2791      O2796   1.372       .  S
C2792      C2793   1.403       .  A
C2793      C2794   1.404       .  A
C2793      H2797   1.083       .  S
C2794      O2798   1.372       .  S
O2796      H2800   0.992       .  S
O2798      H2799   0.992       .  S
C2801      C2802   1.401       .  A
C2801      C2806   1.411       .  A
C2802      C2803   1.401       .  A
C2802      H2807   1.083       .  S
C2803      C2804   1.405       .  A
C2803      O2808   1.370       .  S
C2804      C2805   1.400       .  A
C2805      C2806   1.405       .  A
C2805      H2809   1.084       .  S
C2806      O2810   1.373       .  S
O2808      H2812   0.992       .  S
O2810      H2811   0.992       .  S
C2813      C2814   1.405       .  A
C2813      C2818   1.415       .  A
C2814      C2815   1.400       .  A
C2814      H2819   1.082       .  S
C2815      C2816   1.405       .  A
C2815      O2820   1.372       .  S
C2816      C2817   1.402       .  A
C2817      C2818   1.408       .  A
C2817      H2821   1.084       .  S
C2818      O2822   1.372       .  S
O2820      H2824   0.992       .  S
O2822      H2823   0.993       .  S
C2825      C2826   1.402       .  A
C2825      C2830   1.405       .  A
C2826      C2827   1.403       .  A
C2826      H2831   1.082       .  S
C2827      C2828   1.409       .  A
C2827      O2832   1.372       .  S
C2828      C2829   1.403       .  A
C2829      C2830   1.396       .  A
C2829      H2833   1.080       .  S
C2830      O2834   1.373       .  S
O2832      H2836   0.992       .  S
O2834      H2835   0.992       .  S
C2837      C2838   1.402       .  A
C2837      C2842   1.407       .  A
C2838      C2839   1.402       .  A
C2838      H2843   1.082       .  S
C2839      C2840   1.407       .  A
C2839      O2844   1.372       .  S
C2840      C2841   1.404       .  A
C2841      C2842   1.407       .  A
C2841      H2845   1.084       .  S
C2842      O2846   1.372       .  S
O2844      H2848   0.992       .  S
O2846      H2847   0.991       .  S
C2849      C2850   1.402       .  A
C2849      C2854   1.407       .  A
C2850      C2851   1.399       .  A
C2850      H2855   1.079       .  S
C2851      C2852   1.405       .  A
C2851      O2856   1.372       .  S
C2852      C2853   1.402       .  A
C2853      C2854   1.399       .  A
C2853      H2857   1.084       .  S
C2854      O2858   1.369       .  S
O2856      H2860   0.991       .  S
O2858      H2859   0.992       .  S
C2861      C2862   1.404       .  A
C2861      C2866   1.413       .  A
C2862      C2863   1.400       .  A
C2862      H2867   1.074       .  S
C2863      C2864   1.405       .  A
C2863      O2868   1.372       .  S
C2864      C2865   1.406       .  A
C2865      C2866   1.407       .  A
C2865      H2869   1.083       .  S
C2866      O2870   1.371       .  S
O2868      H2872   0.992       .  S
O2870      H2871   0.992       .  S
C2873      C2874   1.404       .  A
C2873      C2878   1.406       .  A
C2874      C2875   1.406       .  A
C2874      H2879   1.084       .  S
C2875      C2876   1.408       .  A
C2875      O2880   1.372       .  S
C2876      C2877   1.401       .  A
C2877      C2878   1.398       .  A
C2877      H2881   1.084       .  S
C2878      O2882   1.371       .  S
O2880      H2884   0.990       .  S
O2882      H2883   0.992       .  S
C2885      C2886   1.401       .  A
C2885      C2890   1.409       .  A
C2886      C2887   1.406       .  A
C2886      H2891   1.084       .  S
C2887      C2888   1.414       .  A
C2887      O2892   1.371       .  S
C2888      C2889   1.402       .  A
C2889      C2890   1.399       .  A
C2889      H2893   1.084       .  S
C2890      O2894   1.373       .  S
O2892      H2896   0.994       .  S
O2894      H2895   0.992       .  S
C2897      C2898   1.401       .  A
C2897      C2902   1.407       .  A
C2898      C2899   1.394       .  A
C2898      H2903   1.084       .  S
C2899      C2900   1.403       .  A
C2899      O2904   1.372       .  S
C2900      C2901   1.403       .  A
C2901      C2902   1.406       .  A
C2901      H2905   1.084       .  S
C2902      O2906   1.375       .  S
O2904      H2908   0.992       .  S
O2906      H2907   0.991       .  S
C2909      C2910   1.402       .  A
C2909      C2914   1.409       .  A
C2910      C2911   1.402       .  A
C2910      H2915   1.083       .  S
C2911      C2912   1.406       .  A
C2911      O2916   1.371       .  S
C2912      C2913   1.400       .  A
C2913      C2914   1.404       .  A
C2913      H2917   1.082       .  S
C2914      O2918   1.373       .  S
O2916      H2920   0.992       .  S
O2918      H2919   0.992       .  S
C2921      C2922   1.402       .  A
C2921      C2926   1.411       .  A
C2922      C2923   1.398       .  A
C2922      H2927   1.075       .  S
C2923      C2924   1.407       .  A
C2923      O2928   1.372       .  S
C2924      C2925   1.405       .  A
C2925      C2926   1.402       .  A
C2925      H2929   1.083       .  S
C2926      O2930   1.371       .  S
O2928      H2932   0.992       .  S
O2930      H2931   0.992       .  S
C2933      C2934   1.405       .  A
C2933      C2938   1.404       .  A
C2934      C2935   1.405       .  A
C2934      H2939   1.083       .  S
C2935      C2936   1.407       .  A
C2935      O2940   1.371       .  S
C2936      C2937   1.402       .  A
C2937      C2938   1.399       .  A
C2937      H2941   1.078       .  S
C2938      O2942   1.372       .  S
O2940      H2944   0.991       .  S
O2942      H2943   0.992       .  S
C2945      C2946   1.405       .  A
C2945      C2950   1.406       .  A
C2946      C2947   1.407       .  A
C2946      H2951   1.084       .  S
C2947      C2948   1.413       .  A
C2947      O2952   1.371       .  S
C2948      C2949   1.403       .  A
C2949      C2950   1.395       .  A
C2949      H2953   1.078       .  S
C2950      O2954   1.372       .  S
O2952      H2956   0.992       .  S
O2954      H2955   0.992       .  S
C2957      C2958   1.409       .  A
C2957      C2962   1.413       .  A
C2958      C2959   1.403       .  A
C2958      H2963   1.082       .  S
C2959      C2960   1.406       .  A
C2959      O2964   1.369       .  S
C2960      C2961   1.398       .  A
C2961      C2962   1.399       .  A
C2961      H2965   1.084       .  S
C2962      O2966   1.371       .  S
O2964      H2968   0.991       .  S
O2966      H2967   0.992       .  S
C2969      C2970   1.400       .  A
C2969      C2974   1.407       .  A
C2970      C2971   1.399       .  A
C2970      H2975   1.082       .  S
C2971      C2972   1.404       .  A
C2971      O2976   1.372       .  S
C2972      C2973   1.403       .  A
C2973      C2974   1.406       .  A
C2973      H2977   1.084       .  S
C2974      O2978   1.373       .  S
O2976      H2980   0.992       .  S
O2978      H2979   0.991       .  S
C2981      H2982   1.111       .  S
C2981      C2987   1.544       .  S
C2981      C2986   1.545       .  S
C2981      C2985   1.539       .  S
C2983      H2984   1.107       .  S
C2983      C2989   1.538       .  S
C2983      C2988   1.532       .  S
C2983      C2990   1.541       .  S
C2985      C2988   1.365       .  D
C2985      C3508   1.476       .  S
C2986      C2989   1.379       .  D
C2986      C3517   1.492       .  S
C2987      C2990   1.381       .  D
C2987      C3532   1.487       .  S
C2988      C3565   1.477       .  S
C2989      C3544   1.495       .  S
C2990      C3553   1.501       .  S
C2991      H2992   1.111       .  S
C2991      C2997   1.535       .  S
C2991      C2996   1.531       .  S
C2991      C2995   1.538       .  S
C2993      H2994   1.110       .  S
C2993      C2999   1.541       .  S
C2993      C2998   1.549       .  S
C2993      C3000   1.543       .  S
C2995      C2998   1.377       .  D
C2995      C3469   1.485       .  S
C2996      C2999   1.367       .  D
C2996      C3496   1.474       .  S
C2997      C3000   1.374       .  D
C2997      C3484   1.495       .  S
C2998      C3460   1.497       .  S
C2999      C3529   1.483       .  S
C3000      C3448   1.476       .  S
C3001      H3002   1.111       .  S
C3001      C3007   1.542       .  S
C3001      C3006   1.545       .  S
C3001      C3005   1.547       .  S
C3003      H3004   1.111       .  S
C3003      C3009   1.541       .  S
C3003      C3008   1.538       .  S
C3003      C3010   1.533       .  S
C3005      C3008   1.376       .  D
C3005      C3385   1.481       .  S
C3006      C3009   1.380       .  D
C3006      C3457   1.504       .  S
C3007      C3010   1.367       .  D
C3007      C3400   1.477       .  S
C3008      C3409   1.502       .  S
C3009      C3424   1.481       .  S
C3010      C3433   1.486       .  S
C3011      H3012   1.111       .  S
C3011      C3017   1.537       .  S
C3011      C3016   1.538       .  S
C3011      C3015   1.536       .  S
C3013      H3014   1.110       .  S
C3013      C3019   1.542       .  S
C3013      C3018   1.547       .  S
C3013      C3020   1.539       .  S
C3015      C3018   1.377       .  D
C3015      C3373   1.490       .  S
C3016      C3019   1.372       .  D
C3016      C3349   1.492       .  S
C3017      C3020   1.373       .  D
C3017      C3361   1.481       .  S
C3018      C3520   1.489       .  S
C3019      C3397   1.484       .  S
C3020      C3337   1.487       .  S
C3021      H3022   1.111       .  S
C3021      C3027   1.538       .  S
C3021      C3026   1.537       .  S
C3021      C3025   1.545       .  S
C3023      H3024   1.112       .  S
C3023      C3029   1.533       .  S
C3023      C3028   1.536       .  S
C3023      C3030   1.536       .  S
C3025      C3028   1.376       .  D
C3025      C3340   1.480       .  S
C3026      C3029   1.371       .  D
C3026      C3289   1.482       .  S
C3027      C3030   1.370       .  D
C3027      C3277   1.479       .  S
C3028      C3328   1.494       .  S
C3029      C3313   1.478       .  S
C3030      C3301   1.481       .  S
C3031      H3032   1.110       .  S
C3031      C3037   1.535       .  S
C3031      C3036   1.534       .  S
C3031      C3035   1.534       .  S
C3033      H3034   1.108       .  S
C3033      C3039   1.545       .  S
C3033      C3038   1.542       .  S
C3033      C3040   1.544       .  S
C3035      C3038   1.374       .  D
C3035      C3253   1.488       .  S
C3036      C3039   1.377       .  D
C3036      C3244   1.478       .  S
C3037      C3040   1.373       .  D
C3037      C3268   1.496       .  S
C3038      C3292   1.484       .  S
C3039      C3229   1.499       .  S
C3040      C3505   1.481       .  S
C3041      H3042   1.111       .  S
C3041      C3047   1.534       .  S
C3041      C3046   1.537       .  S
C3041      C3045   1.534       .  S
C3043      H3044   1.112       .  S
C3043      C3049   1.537       .  S
C3043      C3048   1.541       .  S
C3043      C3050   1.536       .  S
C3045      C3048   1.373       .  D
C3045      C3208   1.488       .  S
C3046      C3049   1.373       .  D
C3046      C3196   1.488       .  S
C3047      C3050   1.367       .  D
C3047      C3220   1.475       .  S
C3048      C3181   1.477       .  S
C3049      C3280   1.479       .  S
C3050      C3388   1.475       .  S
C3051      H3052   1.111       .  S
C3051      C3057   1.539       .  S
C3051      C3056   1.535       .  S
C3051      C3055   1.534       .  S
C3053      H3054   1.111       .  S
C3053      C3059   1.536       .  S
C3053      C3058   1.534       .  S
C3053      C3060   1.540       .  S
C3055      C3058   1.369       .  D
C3055      C3445   1.477       .  S
C3056      C3059   1.373       .  D
C3056      C3184   1.476       .  S
C3057      C3060   1.379       .  D
C3057      C3232   1.490       .  S
C3058      C3169   1.479       .  S
C3059      C3145   1.487       .  S
C3060      C3157   1.489       .  S
O3061      V3069   1.881       .  S
O3061      C3071   1.261       .  A
O3062      C3072   1.263       .  A
O3063      C3073   1.262       .  A
O3064      V4261   1.896       .  S
O3064      C3074   1.264       .  A
O3065      V4262   1.908       .  S
O3065      C3074   1.266       .  A
O3066      C3073   1.266       .  A
O3067      C3072   1.267       .  A
O3068      V3070   1.914   1_545  S
O3068      C3071   1.266       .  A
V3069      O4256   1.897   1_545  S
V3069      V3070   2.088   1_545  T
V3070      O4257   1.906       .  S
C3071      C3217   1.468       .  S
C3072      C3265   1.480       .  S
C3073      C3172   1.472       .  S
C3074      C3325   1.481       .  S
O3075      V4275   1.898       .  S
O3075      C3085   1.263       .  A
O3076      C3086   1.263       .  A
O3077      C3087   1.262       .  A
O3078      V3083   1.900       .  S
O3078      C3088   1.264       .  A
O3079      V3084   1.910       .  S
O3079      C3088   1.266       .  A
O3080      C3087   1.264       .  A
O3081      C3086   1.268       .  A
O3082      V4276   1.908       .  S
O3082      C3085   1.265       .  A
V3083      O4267   1.893   1_545  S
V3083      V3084   2.087       .  T
V3084      O4274   1.912   1_545  S
C3085      C3364   1.471       .  S
C3086      C3481   1.482       .  S
C3087      C3568   1.465       .  S
C3088      C3412   1.479       .  S
O3089      V3693   1.912   1_556  S
O3089      C3099   1.266       .  A
O3090      V3097   1.909       .  S
O3090      C3100   1.266       .  A
O3091      V4289   1.912       .  S
O3091      C3101   1.267       .  A
O3092      C3102   1.266       .  A
O3093      C3102   1.262       .  A
O3094      V4290   1.886       .  S
O3094      C3101   1.261       .  A
O3095      V3098   1.902       .  S
O3095      C3100   1.266       .  A
O3096      V3694   1.899   1_556  S
O3096      C3099   1.265       .  A
V3097      O3685   1.911   1_545  S
V3097      O4283   1.905   1_545  S
V3097      V3098   2.077       .  T
V3098      O4286   1.889   1_545  S
V3098      O3692   1.900   1_545  S
C3099      C3376   1.478       .  S
C3100      C3205   1.479       .  S
C3101      C3316   1.469       .  S
C3102      C3421   1.467       .  S
O3103      C3113   1.264       .  A
O3104      C3114   1.262       .  A
O3105      V3111   1.892       .  S
O3105      C3115   1.263       .  A
O3106      C3116   1.261       .  A
O3107      C3116   1.265       .  A
O3108      V3112   1.904       .  S
O3108      C3115   1.265       .  A
O3109      C3114   1.268       .  A
O3110      C3113   1.267       .  A
V3111      V3112   2.087       .  T
C3113      C3160   1.480       .  S
C3114      C3436   1.476       .  S
C3115      C3193   1.472       .  S
C3116      C3493   1.466       .  S
O3117      V3721   1.890   1_556  S
O3117      C3127   1.263       .  A
O3118      V3125   1.889       .  S
O3118      C3128   1.262       .  A
O3119      V4317   1.893       .  S
O3119      C3129   1.264       .  A
O3120      C3130   1.263       .  A
O3121      C3130   1.268       .  A
O3122      V4318   1.909       .  S
O3122      C3129   1.266       .  A
O3123      V3126   1.912       .  S
O3123      C3128   1.267       .  A
O3124      V3722   1.913   1_556  S
O3124      C3127   1.267       .  A
V3125      O3713   1.889   1_545  S
V3125      O4311   1.889   1_545  S
V3125      V3126   2.077       .  T
V3126      O4314   1.911   1_545  S
V3126      O3720   1.914   1_545  S
C3127      C3541   1.477       .  S
C3128      C3148   1.473       .  S
C3129      C3256   1.473       .  S
C3130      C3472   1.475       .  S
O3131      C3141   1.263       .  A
O3132      V3139   1.883       .  S
O3132      C3142   1.261       .  A
O3133      C3143   1.264       .  A
O3134      C3144   1.263       .  A
O3135      C3144   1.264       .  A
O3136      C3143   1.266       .  A
O3137      V3140   1.916       .  S
O3137      C3142   1.268       .  A
O3138      C3141   1.267       .  A
V3139      V3140   2.083       .  T
C3141      C3556   1.476       .  S
C3142      C3304   1.474       .  S
C3143      C3352   1.478       .  S
C3144      C3241   1.464       .  S
C3145      C3146   1.402       .  A
C3145      C3150   1.413       .  A
C3146      C3147   1.397       .  A
C3146      H3151   1.083       .  S
C3147      C3148   1.407       .  A
C3147      O3152   1.373       .  S
C3148      C3149   1.402       .  A
C3149      C3150   1.405       .  A
C3149      H3153   1.083       .  S
C3150      O3154   1.372       .  S
O3152      H3156   0.992       .  S
O3154      H3155   0.992       .  S
C3157      C3158   1.403       .  A
C3157      C3162   1.411       .  A
C3158      C3159   1.399       .  A
C3158      H3163   1.084       .  S
C3159      C3160   1.410       .  A
C3159      O3164   1.372       .  S
C3160      C3161   1.405       .  A
C3161      C3162   1.405       .  A
C3161      H3165   1.084       .  S
C3162      O3166   1.371       .  S
O3164      H3168   0.992       .  S
O3166      H3167   0.991       .  S
C3169      C3170   1.400       .  A
C3169      C3174   1.409       .  A
C3170      C3171   1.399       .  A
C3170      H3175   1.084       .  S
C3171      C3172   1.406       .  A
C3171      O3176   1.370       .  S
C3172      C3173   1.401       .  A
C3173      C3174   1.406       .  A
C3173      H3177   1.084       .  S
C3174      O3178   1.372       .  S
O3176      H3180   0.992       .  S
O3178      H3179   0.992       .  S
C3181      C3182   1.401       .  A
C3181      C3186   1.408       .  A
C3182      C3183   1.396       .  A
C3182      H3187   1.082       .  S
C3183      C3184   1.406       .  A
C3183      O3188   1.372       .  S
C3184      C3185   1.402       .  A
C3185      C3186   1.401       .  A
C3185      H3189   1.084       .  S
C3186      O3190   1.373       .  S
O3188      H3192   0.992       .  S
O3190      H3191   0.992       .  S
C3193      C3194   1.402       .  A
C3193      C3198   1.406       .  A
C3194      C3195   1.396       .  A
C3194      H3199   1.084       .  S
C3195      C3196   1.408       .  A
C3195      O3200   1.371       .  S
C3196      C3197   1.405       .  A
C3197      C3198   1.402       .  A
C3197      H3201   1.076       .  S
C3198      O3202   1.372       .  S
O3200      H3204   0.992       .  S
O3202      H3203   0.992       .  S
C3205      C3206   1.403       .  A
C3205      C3210   1.410       .  A
C3206      C3207   1.401       .  A
C3206      H3211   1.084       .  S
C3207      C3208   1.408       .  A
C3207      O3212   1.373       .  S
C3208      C3209   1.405       .  A
C3209      C3210   1.404       .  A
C3209      H3213   1.083       .  S
C3210      O3214   1.372       .  S
O3212      H3216   0.992       .  S
O3214      H3215   0.992       .  S
C3217      C3218   1.400       .  A
C3217      C3222   1.408       .  A
C3218      C3219   1.391       .  A
C3218      H3223   1.082       .  S
C3219      C3220   1.402       .  A
C3219      O3224   1.373       .  S
C3220      C3221   1.406       .  A
C3221      C3222   1.407       .  A
C3221      H3225   1.084       .  S
C3222      O3226   1.371       .  S
O3224      H3228   0.992       .  S
O3226      H3227   0.992       .  S
C3229      C3230   1.407       .  A
C3229      C3234   1.409       .  A
C3230      C3231   1.404       .  A
C3230      H3235   1.076       .  S
C3231      C3232   1.408       .  A
C3231      O3236   1.373       .  S
C3232      C3233   1.400       .  A
C3233      C3234   1.397       .  A
C3233      H3237   1.078       .  S
C3234      O3238   1.368       .  S
O3236      H3240   0.992       .  S
O3238      H3239   0.992       .  S
C3241      C3242   1.401       .  A
C3241      C3246   1.402       .  A
C3242      C3243   1.400       .  A
C3242      H3247   1.082       .  S
C3243      C3244   1.406       .  A
C3243      O3248   1.372       .  S
C3244      C3245   1.404       .  A
C3245      C3246   1.398       .  A
C3245      H3249   1.081       .  S
C3246      O3250   1.371       .  S
O3248      H3252   0.992       .  S
O3250      H3251   0.992       .  S
C3253      C3254   1.406       .  A
C3253      C3258   1.408       .  A
C3254      C3255   1.404       .  A
C3254      H3259   1.083       .  S
C3255      C3256   1.409       .  A
C3255      O3260   1.371       .  S
C3256      C3257   1.399       .  A
C3257      C3258   1.395       .  A
C3257      H3261   1.084       .  S
C3258      O3262   1.369       .  S
O3260      H3264   0.990       .  S
O3262      H3263   0.992       .  S
C3265      C3266   1.404       .  A
C3265      C3270   1.406       .  A
C3266      C3267   1.402       .  A
C3266      H3271   1.084       .  S
C3267      C3268   1.411       .  A
C3267      O3272   1.372       .  S
C3268      C3269   1.405       .  A
C3269      C3270   1.401       .  A
C3269      H3273   1.077       .  S
C3270      O3274   1.371       .  S
O3272      H3276   0.992       .  S
O3274      H3275   0.983       .  S
C3277      C3278   1.400       .  A
C3277      C3282   1.407       .  A
C3278      C3279   1.404       .  A
C3278      H3283   1.083       .  S
C3279      C3280   1.408       .  A
C3279      O3284   1.376       .  S
C3280      C3281   1.401       .  A
C3281      C3282   1.401       .  A
C3281      H3285   1.083       .  S
C3282      O3286   1.371       .  S
O3284      H3288   0.992       .  S
O3286      H3287   0.992       .  S
C3289      C3290   1.401       .  A
C3289      C3294   1.408       .  A
C3290      C3291   1.400       .  A
C3290      H3295   1.084       .  S
C3291      C3292   1.408       .  A
C3291      O3296   1.370       .  S
C3292      C3293   1.403       .  A
C3293      C3294   1.402       .  A
C3293      H3297   1.084       .  S
C3294      O3298   1.372       .  S
O3296      H3300   0.992       .  S
O3298      H3299   0.992       .  S
C3301      C3302   1.399       .  A
C3301      C3306   1.411       .  A
C3302      C3303   1.395       .  A
C3302      H3307   1.084       .  S
C3303      C3304   1.409       .  A
C3303      O3308   1.373       .  S
C3304      C3305   1.403       .  A
C3305      C3306   1.405       .  A
C3305      H3309   1.084       .  S
C3306      O3310   1.369       .  S
O3308      H3312   0.992       .  S
O3310      H3311   0.992       .  S
C3313      C3314   1.400       .  A
C3313      C3318   1.410       .  A
C3314      C3315   1.396       .  A
C3314      H3319   1.084       .  S
C3315      C3316   1.408       .  A
C3315      O3320   1.372       .  S
C3316      C3317   1.402       .  A
C3317      C3318   1.401       .  A
C3317      H3321   1.083       .  S
C3318      O3322   1.372       .  S
O3320      H3324   0.992       .  S
O3322      H3323   0.992       .  S
C3325      C3326   1.404       .  A
C3325      C3330   1.409       .  A
C3326      C3327   1.407       .  A
C3326      H3331   1.084       .  S
C3327      C3328   1.413       .  A
C3327      O3332   1.372       .  S
C3328      C3329   1.404       .  A
C3329      C3330   1.399       .  A
C3329      H3333   1.084       .  S
C3330      O3334   1.372       .  S
O3332      H3336   0.992       .  S
O3334      H3335   0.992       .  S
C3337      C3338   1.400       .  A
C3337      C3342   1.410       .  A
C3338      C3339   1.394       .  A
C3338      H3343   1.076       .  S
C3339      C3340   1.402       .  A
C3339      O3344   1.370       .  S
C3340      C3341   1.404       .  A
C3341      C3342   1.406       .  A
C3341      H3345   1.084       .  S
C3342      O3346   1.372       .  S
O3344      H3348   0.992       .  S
O3346      H3347   0.992       .  S
C3349      C3350   1.404       .  A
C3349      C3354   1.409       .  A
C3350      C3351   1.402       .  A
C3350      H3355   1.077       .  S
C3351      C3352   1.407       .  A
C3351      O3356   1.372       .  S
C3352      C3353   1.403       .  A
C3353      C3354   1.402       .  A
C3353      H3357   1.084       .  S
C3354      O3358   1.372       .  S
O3356      H3360   0.992       .  S
O3358      H3359   0.992       .  S
C3361      C3362   1.402       .  A
C3361      C3366   1.407       .  A
C3362      C3363   1.400       .  A
C3362      H3367   1.082       .  S
C3363      C3364   1.404       .  A
C3363      O3368   1.371       .  S
C3364      C3365   1.404       .  A
C3365      C3366   1.404       .  A
C3365      H3369   1.084       .  S
C3366      O3370   1.372       .  S
O3368      H3372   0.992       .  S
O3370      H3371   0.991       .  S
C3373      C3374   1.402       .  A
C3373      C3378   1.411       .  A
C3374      C3375   1.397       .  A
C3374      H3379   1.081       .  S
C3375      C3376   1.406       .  A
C3375      O3380   1.372       .  S
C3376      C3377   1.406       .  A
C3377      C3378   1.409       .  A
C3377      H3381   1.084       .  S
C3378      O3382   1.372       .  S
O3380      H3384   0.992       .  S
O3382      H3383   0.991       .  S
C3385      C3386   1.402       .  A
C3385      C3390   1.407       .  A
C3386      C3387   1.396       .  A
C3386      H3391   1.078       .  S
C3387      C3388   1.403       .  A
C3387      O3392   1.372       .  S
C3388      C3389   1.403       .  A
C3389      C3390   1.403       .  A
C3389      H3393   1.083       .  S
C3390      O3394   1.372       .  S
O3392      H3396   0.992       .  S
O3394      H3395   0.992       .  S
C3397      C3398   1.401       .  A
C3397      C3402   1.410       .  A
C3398      C3399   1.401       .  A
C3398      H3403   1.083       .  S
C3399      C3400   1.405       .  A
C3399      O3404   1.371       .  S
C3400      C3401   1.399       .  A
C3401      C3402   1.404       .  A
C3401      H3405   1.084       .  S
C3402      O3406   1.373       .  S
O3404      H3408   0.992       .  S
O3406      H3407   0.992       .  S
C3409      C3410   1.406       .  A
C3409      C3414   1.416       .  A
C3410      C3411   1.401       .  A
C3410      H3415   1.082       .  S
C3411      C3412   1.406       .  A
C3411      O3416   1.372       .  S
C3412      C3413   1.401       .  A
C3413      C3414   1.409       .  A
C3413      H3417   1.084       .  S
C3414      O3418   1.372       .  S
O3416      H3420   0.992       .  S
O3418      H3419   0.993       .  S
C3421      C3422   1.401       .  A
C3421      C3426   1.405       .  A
C3422      C3423   1.402       .  A
C3422      H3427   1.082       .  S
C3423      C3424   1.409       .  A
C3423      O3428   1.372       .  S
C3424      C3425   1.403       .  A
C3425      C3426   1.395       .  A
C3425      H3429   1.081       .  S
C3426      O3430   1.373       .  S
O3428      H3432   0.992       .  S
O3430      H3431   0.992       .  S
C3433      C3434   1.403       .  A
C3433      C3438   1.407       .  A
C3434      C3435   1.403       .  A
C3434      H3439   1.083       .  S
C3435      C3436   1.407       .  A
C3435      O3440   1.372       .  S
C3436      C3437   1.404       .  A
C3437      C3438   1.408       .  A
C3437      H3441   1.084       .  S
C3438      O3442   1.373       .  S
O3440      H3444   0.992       .  S
O3442      H3443   0.992       .  S
C3445      C3446   1.402       .  A
C3445      C3450   1.406       .  A
C3446      C3447   1.402       .  A
C3446      H3451   1.081       .  S
C3447      C3448   1.405       .  A
C3447      O3452   1.374       .  S
C3448      C3449   1.401       .  A
C3449      C3450   1.399       .  A
C3449      H3453   1.084       .  S
C3450      O3454   1.370       .  S
O3452      H3456   0.992       .  S
O3454      H3455   0.992       .  S
C3457      C3458   1.404       .  A
C3457      C3462   1.413       .  A
C3458      C3459   1.402       .  A
C3458      H3463   1.075       .  S
C3459      C3460   1.407       .  A
C3459      O3464   1.372       .  S
C3460      C3461   1.407       .  A
C3461      C3462   1.408       .  A
C3461      H3465   1.083       .  S
C3462      O3466   1.371       .  S
O3464      H3468   0.992       .  S
O3466      H3467   0.991       .  S
C3469      C3470   1.405       .  A
C3469      C3474   1.407       .  A
C3470      C3471   1.404       .  A
C3470      H3475   1.084       .  S
C3471      C3472   1.409       .  A
C3471      O3476   1.371       .  S
C3472      C3473   1.401       .  A
C3473      C3474   1.399       .  A
C3473      H3477   1.084       .  S
C3474      O3478   1.372       .  S
O3476      H3480   0.988       .  S
O3478      H3479   0.992       .  S
C3481      C3482   1.402       .  A
C3481      C3486   1.410       .  A
C3482      C3483   1.407       .  A
C3482      H3487   1.084       .  S
C3483      C3484   1.413       .  A
C3483      O3488   1.371       .  S
C3484      C3485   1.403       .  A
C3485      C3486   1.401       .  A
C3485      H3489   1.084       .  S
C3486      O3490   1.372       .  S
O3488      H3492   0.994       .  S
O3490      H3491   0.992       .  S
C3493      C3494   1.401       .  A
C3493      C3498   1.407       .  A
C3494      C3495   1.394       .  A
C3494      H3499   1.084       .  S
C3495      C3496   1.404       .  A
C3495      O3500   1.371       .  S
C3496      C3497   1.403       .  A
C3497      C3498   1.406       .  A
C3497      H3501   1.084       .  S
C3498      O3502   1.374       .  S
O3500      H3504   0.992       .  S
O3502      H3503   0.991       .  S
C3505      C3506   1.401       .  A
C3505      C3510   1.408       .  A
C3506      C3507   1.401       .  A
C3506      H3511   1.083       .  S
C3507      C3508   1.405       .  A
C3507      O3512   1.371       .  S
C3508      C3509   1.399       .  A
C3509      C3510   1.401       .  A
C3509      H3513   1.082       .  S
C3510      O3514   1.373       .  S
O3512      H3516   0.992       .  S
O3514      H3515   0.992       .  S
C3517      C3518   1.402       .  A
C3517      C3522   1.410       .  A
C3518      C3519   1.400       .  A
C3518      H3523   1.077       .  S
C3519      C3520   1.407       .  A
C3519      O3524   1.371       .  S
C3520      C3521   1.405       .  A
C3521      C3522   1.403       .  A
C3521      H3525   1.083       .  S
C3522      O3526   1.371       .  S
O3524      H3528   0.992       .  S
O3526      H3527   0.991       .  S
C3529      C3530   1.405       .  A
C3529      C3534   1.404       .  A
C3530      C3531   1.407       .  A
C3530      H3535   1.083       .  S
C3531      C3532   1.408       .  A
C3531      O3536   1.372       .  S
C3532      C3533   1.403       .  A
C3533      C3534   1.399       .  A
C3533      H3537   1.079       .  S
C3534      O3538   1.372       .  S
O3536      H3540   0.992       .  S
O3538      H3539   0.992       .  S
C3541      C3542   1.405       .  A
C3541      C3546   1.407       .  A
C3542      C3543   1.406       .  A
C3542      H3547   1.084       .  S
C3543      C3544   1.414       .  A
C3543      O3548   1.371       .  S
C3544      C3545   1.404       .  A
C3545      C3546   1.395       .  A
C3545      H3549   1.080       .  S
C3546      O3550   1.372       .  S
O3548      H3552   0.992       .  S
O3550      H3551   0.992       .  S
C3553      C3554   1.408       .  A
C3553      C3558   1.417       .  A
C3554      C3555   1.401       .  A
C3554      H3559   1.080       .  S
C3555      C3556   1.403       .  A
C3555      O3560   1.368       .  S
C3556      C3557   1.399       .  A
C3557      C3558   1.400       .  A
C3557      H3561   1.084       .  S
C3558      O3562   1.372       .  S
O3560      H3564   0.991       .  S
O3562      H3563   0.992       .  S
C3565      C3566   1.400       .  A
C3565      C3570   1.406       .  A
C3566      C3567   1.397       .  A
C3566      H3571   1.083       .  S
C3567      C3568   1.404       .  A
C3567      O3572   1.371       .  S
C3568      C3569   1.402       .  A
C3569      C3570   1.405       .  A
C3569      H3573   1.084       .  S
C3570      O3574   1.374       .  S
O3572      H3576   0.992       .  S
O3574      H3575   0.991       .  S
C3577      H3578   1.111       .  S
C3577      C3583   1.542       .  S
C3577      C3582   1.544       .  S
C3577      C3581   1.536       .  S
C3579      H3580   1.106       .  S
C3579      C3585   1.540       .  S
C3579      C3584   1.534       .  S
C3579      C3586   1.542       .  S
C3581      C3584   1.364       .  D
C3581      C4104   1.475       .  S
C3582      C3585   1.378       .  D
C3582      C4113   1.492       .  S
C3583      C3586   1.379       .  D
C3583      C4128   1.482       .  S
C3584      C4161   1.477       .  S
C3585      C4140   1.496       .  S
C3586      C4149   1.504       .  S
C3587      H3588   1.111       .  S
C3587      C3593   1.531       .  S
C3587      C3592   1.529       .  S
C3587      C3591   1.536       .  S
C3589      H3590   1.110       .  S
C3589      C3595   1.539       .  S
C3589      C3594   1.548       .  S
C3589      C3596   1.541       .  S
C3591      C3594   1.378       .  D
C3591      C4065   1.486       .  S
C3592      C3595   1.365       .  D
C3592      C4092   1.473       .  S
C3593      C3596   1.372       .  D
C3593      C4080   1.486       .  S
C3594      C4056   1.495       .  S
C3595      C4125   1.477       .  S
C3596      C4044   1.477       .  S
C3597      H3598   1.111       .  S
C3597      C3603   1.543       .  S
C3597      C3602   1.547       .  S
C3597      C3601   1.546       .  S
C3599      H3600   1.111       .  S
C3599      C3605   1.540       .  S
C3599      C3604   1.538       .  S
C3599      C3606   1.533       .  S
C3601      C3604   1.376       .  D
C3601      C3981   1.484       .  S
C3602      C3605   1.381       .  D
C3602      C4053   1.499       .  S
C3603      C3606   1.367       .  D
C3603      C3996   1.480       .  S
C3604      C4005   1.498       .  S
C3605      C4020   1.490       .  S
C3606      C4029   1.484       .  S
C3607      H3608   1.111       .  S
C3607      C3613   1.538       .  S
C3607      C3612   1.538       .  S
C3607      C3611   1.536       .  S
C3609      H3610   1.110       .  S
C3609      C3615   1.542       .  S
C3609      C3614   1.547       .  S
C3609      C3616   1.541       .  S
C3611      C3614   1.378       .  D
C3611      C3969   1.492       .  S
C3612      C3615   1.371       .  D
C3612      C3945   1.491       .  S
C3613      C3616   1.375       .  D
C3613      C3957   1.481       .  S
C3614      C4116   1.489       .  S
C3615      C3993   1.486       .  S
C3616      C3933   1.492       .  S
C3617      H3618   1.111       .  S
C3617      C3623   1.537       .  S
C3617      C3622   1.539       .  S
C3617      C3621   1.544       .  S
C3619      H3620   1.112       .  S
C3619      C3625   1.530       .  S
C3619      C3624   1.533       .  S
C3619      C3626   1.529       .  S
C3621      C3624   1.377       .  D
C3621      C3936   1.486       .  S
C3622      C3625   1.372       .  D
C3622      C3885   1.481       .  S
C3623      C3626   1.366       .  D
C3623      C3873   1.470       .  S
C3624      C3924   1.486       .  S
C3625      C3909   1.477       .  S
C3626      C3897   1.476       .  S
C3627      H3628   1.110       .  S
C3627      C3633   1.535       .  S
C3627      C3632   1.535       .  S
C3627      C3631   1.534       .  S
C3629      H3630   1.108       .  S
C3629      C3635   1.546       .  S
C3629      C3634   1.543       .  S
C3629      C3636   1.544       .  S
C3631      C3634   1.374       .  D
C3631      C3849   1.489       .  S
C3632      C3635   1.377       .  D
C3632      C3840   1.480       .  S
C3633      C3636   1.372       .  D
C3633      C3864   1.493       .  S
C3634      C3888   1.484       .  S
C3635      C3825   1.499       .  S
C3636      C4101   1.480       .  S
C3637      H3638   1.110       .  S
C3637      C3643   1.536       .  S
C3637      C3642   1.535       .  S
C3637      C3641   1.534       .  S
C3639      H3640   1.112       .  S
C3639      C3645   1.534       .  S
C3639      C3644   1.539       .  S
C3639      C3646   1.537       .  S
C3641      C3644   1.374       .  D
C3641      C3804   1.488       .  S
C3642      C3645   1.370       .  D
C3642      C3792   1.487       .  S
C3643      C3646   1.369       .  D
C3643      C3816   1.479       .  S
C3644      C3777   1.477       .  S
C3645      C3876   1.471       .  S
C3646      C3984   1.479       .  S
C3647      H3648   1.111       .  S
C3647      C3653   1.541       .  S
C3647      C3652   1.538       .  S
C3647      C3651   1.536       .  S
C3649      H3650   1.111       .  S
C3649      C3655   1.535       .  S
C3649      C3654   1.532       .  S
C3649      C3656   1.539       .  S
C3651      C3654   1.367       .  D
C3651      C4041   1.478       .  S
C3652      C3655   1.373       .  D
C3652      C3780   1.475       .  S
C3653      C3656   1.379       .  D
C3653      C3828   1.491       .  S
C3654      C3765   1.476       .  S
C3655      C3741   1.487       .  S
C3656      C3753   1.490       .  S
O3657      V3665   1.883       .  S
O3657      C3667   1.261       .  A
O3658      C3668   1.263       .  A
O3659      C3669   1.262       .  A
O3660      C3670   1.264       .  A
O3661      C3670   1.265       .  A
O3662      C3669   1.265       .  A
O3663      C3668   1.267       .  A
O3664      V3666   1.916       .  S
O3664      C3667   1.267       .  A
V3665      V3666   2.088       .  T
C3667      C3813   1.471       .  S
C3668      C3861   1.478       .  S
C3669      C3768   1.468       .  S
C3670      C3921   1.476       .  S
O3671      C3681   1.262       .  A
O3672      C3682   1.261       .  A
O3673      C3683   1.261       .  A
O3674      V3679   1.901       .  S
O3674      C3684   1.265       .  A
O3675      V3680   1.906       .  S
O3675      C3684   1.265       .  A
O3676      C3683   1.265       .  A
O3677      C3682   1.267       .  A
O3678      C3681   1.266       .  A
V3679      V3680   2.088       .  T
C3681      C3960   1.470       .  S
C3682      C4077   1.475       .  S
C3683      C4164   1.465       .  S
C3684      C4008   1.477       .  S
O3685      C3695   1.266       .  A
O3686      V3693   1.910       .  S
O3686      C3696   1.267       .  A
O3687      C3697   1.266       .  A
O3688      V4289   1.915       .  S
O3688      C3698   1.268       .  A
O3689      V4290   1.890       .  S
O3689      C3698   1.263       .  A
O3690      C3697   1.262       .  A
O3691      V3694   1.900       .  S
O3691      C3696   1.265       .  A
O3692      C3695   1.266       .  A
V3693      O4284   1.908   1_554  S
V3693      V3694   2.079       .  T
V3694      O4285   1.887   1_554  S
C3695      C3972   1.479       .  S
C3696      C3801   1.479       .  S
C3697      C3912   1.465       .  S
C3698      C4017   1.477       .  S
O3699      C3709   1.264       .  A
O3700      V4303   1.894       .  S
O3700      C3710   1.262       .  A
O3701      V3707   1.890       .  S
O3701      C3711   1.263       .  A
O3702      C3712   1.262       .  A
O3703      C3712   1.265       .  A
O3704      V3708   1.906       .  S
O3704      C3711   1.265       .  A
O3705      V4304   1.915       .  S
O3705      C3710   1.267       .  A
O3706      C3709   1.267       .  A
V3707      O4296   1.891   1_554  S
V3707      V3708   2.089       .  T
V3708      O4301   1.914   1_554  S
C3709      C3756   1.481       .  S
C3710      C4032   1.473       .  S
C3711      C3789   1.473       .  S
C3712      C4089   1.466       .  S
O3713      C3723   1.263       .  A
O3714      V3721   1.887       .  S
O3714      C3724   1.262       .  A
O3715      C3725   1.263       .  A
O3716      V4317   1.896       .  S
O3716      C3726   1.264       .  A
O3717      V4318   1.912       .  S
O3717      C3726   1.267       .  A
O3718      C3725   1.267       .  A
O3719      V3722   1.911       .  S
O3719      C3724   1.267       .  A
O3720      C3723   1.267       .  A
V3721      O4312   1.892   1_554  S
V3721      V3722   2.078       .  T
V3722      O4313   1.909   1_554  S
C3723      C4137   1.478       .  S
C3724      C3744   1.472       .  S
C3725      C3852   1.471       .  S
C3726      C4068   1.476       .  S
O3727      C3737   1.262       .  A
O3728      V3735   1.884       .  S
O3728      C3738   1.261       .  A
O3729      V4331   1.898       .  S
O3729      C3739   1.264       .  A
O3730      C3740   1.263       .  A
O3731      C3740   1.264       .  A
O3732      V4332   1.907       .  S
O3732      C3739   1.266       .  A
O3733      V3736   1.913   1_554  S
O3733      C3738   1.266       .  A
O3734      C3737   1.268       .  A
V3735      O4325   1.897   1_554  S
V3735      V3736   2.085   1_554  T
V3736      O4328   1.908       .  S
C3737      C4152   1.477       .  S
C3738      C3900   1.470       .  S
C3739      C3948   1.479       .  S
C3740      C3837   1.466       .  S
C3741      C3742   1.402       .  A
C3741      C3746   1.413       .  A
C3742      C3743   1.395       .  A
C3742      H3747   1.082       .  S
C3743      C3744   1.407       .  A
C3743      O3748   1.373       .  S
C3744      C3745   1.401       .  A
C3745      C3746   1.405       .  A
C3745      H3749   1.083       .  S
C3746      O3750   1.371       .  S
O3748      H3752   0.992       .  S
O3750      H3751   0.992       .  S
C3753      C3754   1.404       .  A
C3753      C3758   1.411       .  A
C3754      C3755   1.399       .  A
C3754      H3759   1.084       .  S
C3755      C3756   1.410       .  A
C3755      O3760   1.372       .  S
C3756      C3757   1.405       .  A
C3757      C3758   1.404       .  A
C3757      H3761   1.084       .  S
C3758      O3762   1.371       .  S
O3760      H3764   0.992       .  S
O3762      H3763   0.992       .  S
C3765      C3766   1.399       .  A
C3765      C3770   1.409       .  A
C3766      C3767   1.399       .  A
C3766      H3771   1.084       .  S
C3767      C3768   1.406       .  A
C3767      O3772   1.371       .  S
C3768      C3769   1.401       .  A
C3769      C3770   1.405       .  A
C3769      H3773   1.084       .  S
C3770      O3774   1.373       .  S
O3772      H3776   0.992       .  S
O3774      H3775   0.992       .  S
C3777      C3778   1.401       .  A
C3777      C3782   1.407       .  A
C3778      C3779   1.396       .  A
C3778      H3783   1.081       .  S
C3779      C3780   1.405       .  A
C3779      O3784   1.372       .  S
C3780      C3781   1.403       .  A
C3781      C3782   1.401       .  A
C3781      H3785   1.084       .  S
C3782      O3786   1.372       .  S
O3784      H3788   0.992       .  S
O3786      H3787   0.992       .  S
C3789      C3790   1.402       .  A
C3789      C3794   1.407       .  A
C3790      C3791   1.395       .  A
C3790      H3795   1.084       .  S
C3791      C3792   1.407       .  A
C3791      O3796   1.371       .  S
C3792      C3793   1.406       .  A
C3793      C3794   1.403       .  A
C3793      H3797   1.077       .  S
C3794      O3798   1.372       .  S
O3796      H3800   0.992       .  S
O3798      H3799   0.992       .  S
C3801      C3802   1.403       .  A
C3801      C3806   1.409       .  A
C3802      C3803   1.401       .  A
C3802      H3807   1.084       .  S
C3803      C3804   1.408       .  A
C3803      O3808   1.373       .  S
C3804      C3805   1.405       .  A
C3805      C3806   1.404       .  A
C3805      H3809   1.083       .  S
C3806      O3810   1.371       .  S
O3808      H3812   0.992       .  S
O3810      H3811   0.992       .  S
C3813      C3814   1.401       .  A
C3813      C3818   1.408       .  A
C3814      C3815   1.393       .  A
C3814      H3819   1.082       .  S
C3815      C3816   1.404       .  A
C3815      O3820   1.373       .  S
C3816      C3817   1.406       .  A
C3817      C3818   1.407       .  A
C3817      H3821   1.083       .  S
C3818      O3822   1.371       .  S
O3820      H3824   0.992       .  S
O3822      H3823   0.992       .  S
C3825      C3826   1.407       .  A
C3825      C3830   1.409       .  A
C3826      C3827   1.406       .  A
C3826      H3831   1.077       .  S
C3827      C3828   1.408       .  A
C3827      O3832   1.373       .  S
C3828      C3829   1.400       .  A
C3829      C3830   1.397       .  A
C3829      H3833   1.078       .  S
C3830      O3834   1.368       .  S
O3832      H3836   0.992       .  S
O3834      H3835   0.992       .  S
C3837      C3838   1.402       .  A
C3837      C3842   1.403       .  A
C3838      C3839   1.401       .  A
C3838      H3843   1.083       .  S
C3839      C3840   1.406       .  A
C3839      O3844   1.372       .  S
C3840      C3841   1.404       .  A
C3841      C3842   1.399       .  A
C3841      H3845   1.082       .  S
C3842      O3846   1.371       .  S
O3844      H3848   0.992       .  S
O3846      H3847   0.992       .  S
C3849      C3850   1.407       .  A
C3849      C3854   1.408       .  A
C3850      C3851   1.404       .  A
C3850      H3855   1.083       .  S
C3851      C3852   1.409       .  A
C3851      O3856   1.371       .  S
C3852      C3853   1.398       .  A
C3853      C3854   1.394       .  A
C3853      H3857   1.084       .  S
C3854      O3858   1.368       .  S
O3856      H3860   0.990       .  S
O3858      H3859   0.992       .  S
C3861      C3862   1.403       .  A
C3861      C3866   1.406       .  A
C3862      C3863   1.400       .  A
C3862      H3867   1.084       .  S
C3863      C3864   1.411       .  A
C3863      O3868   1.372       .  S
C3864      C3865   1.405       .  A
C3865      C3866   1.403       .  A
C3865      H3869   1.078       .  S
C3866      O3870   1.371       .  S
O3868      H3872   0.992       .  S
O3870      H3871   0.983       .  S
C3873      C3874   1.399       .  A
C3873      C3878   1.405       .  A
C3874      C3875   1.399       .  A
C3874      H3879   1.083       .  S
C3875      C3876   1.405       .  A
C3875      O3880   1.375       .  S
C3876      C3877   1.401       .  A
C3877      C3878   1.399       .  A
C3877      H3881   1.083       .  S
C3878      O3882   1.372       .  S
O3880      H3884   0.992       .  S
O3882      H3883   0.992       .  S
C3885      C3886   1.401       .  A
C3885      C3890   1.408       .  A
C3886      C3887   1.399       .  A
C3886      H3891   1.084       .  S
C3887      C3888   1.408       .  A
C3887      O3892   1.370       .  S
C3888      C3889   1.403       .  A
C3889      C3890   1.401       .  A
C3889      H3893   1.084       .  S
C3890      O3894   1.372       .  S
O3892      H3896   0.992       .  S
O3894      H3895   0.992       .  S
C3897      C3898   1.398       .  A
C3897      C3902   1.409       .  A
C3898      C3899   1.394       .  A
C3898      H3903   1.084       .  S
C3899      C3900   1.407       .  A
C3899      O3904   1.372       .  S
C3900      C3901   1.403       .  A
C3901      C3902   1.404       .  A
C3901      H3905   1.084       .  S
C3902      O3906   1.370       .  S
O3904      H3908   0.992       .  S
O3906      H3907   0.992       .  S
C3909      C3910   1.402       .  A
C3909      C3914   1.409       .  A
C3910      C3911   1.395       .  A
C3910      H3915   1.084       .  S
C3911      C3912   1.407       .  A
C3911      O3916   1.372       .  S
C3912      C3913   1.401       .  A
C3913      C3914   1.399       .  A
C3913      H3917   1.082       .  S
C3914      O3918   1.371       .  S
O3916      H3920   0.992       .  S
O3918      H3919   0.992       .  S
C3921      C3922   1.405       .  A
C3921      C3926   1.407       .  A
C3922      C3923   1.405       .  A
C3922      H3927   1.084       .  S
C3923      C3924   1.409       .  A
C3923      O3928   1.372       .  S
C3924      C3925   1.403       .  A
C3925      C3926   1.397       .  A
C3925      H3929   1.084       .  S
C3926      O3930   1.372       .  S
O3928      H3932   0.992       .  S
O3930      H3931   0.992       .  S
C3933      C3934   1.402       .  A
C3933      C3938   1.412       .  A
C3934      C3935   1.397       .  A
C3934      H3939   1.079       .  S
C3935      C3936   1.406       .  A
C3935      O3940   1.369       .  S
C3936      C3937   1.402       .  A
C3937      C3938   1.406       .  A
C3937      H3941   1.084       .  S
C3938      O3942   1.371       .  S
O3940      H3944   0.992       .  S
O3942      H3943   0.992       .  S
C3945      C3946   1.404       .  A
C3945      C3950   1.409       .  A
C3946      C3947   1.403       .  A
C3946      H3951   1.079       .  S
C3947      C3948   1.408       .  A
C3947      O3952   1.371       .  S
C3948      C3949   1.403       .  A
C3949      C3950   1.401       .  A
C3949      H3953   1.084       .  S
C3950      O3954   1.372       .  S
O3952      H3956   0.995       .  S
O3954      H3955   0.992       .  S
C3957      C3958   1.402       .  A
C3957      C3962   1.407       .  A
C3958      C3959   1.398       .  A
C3958      H3963   1.082       .  S
C3959      C3960   1.404       .  A
C3959      O3964   1.371       .  S
C3960      C3961   1.404       .  A
C3961      C3962   1.405       .  A
C3961      H3965   1.084       .  S
C3962      O3966   1.372       .  S
O3964      H3968   0.992       .  S
O3966      H3967   0.992       .  S
C3969      C3970   1.404       .  A
C3969      C3974   1.411       .  A
C3970      C3971   1.398       .  A
C3970      H3975   1.080       .  S
C3971      C3972   1.406       .  A
C3971      O3976   1.372       .  S
C3972      C3973   1.405       .  A
C3973      C3974   1.408       .  A
C3973      H3977   1.084       .  S
C3974      O3978   1.371       .  S
O3976      H3980   0.992   1_565  S
O3978      H3979   0.990       .  S
C3981      C3982   1.401       .  A
C3981      C3986   1.408       .  A
C3982      C3983   1.397       .  A
C3982      H3987   1.078       .  S
C3983      C3984   1.404       .  A
C3983      O3988   1.372       .  S
C3984      C3985   1.404       .  A
C3985      C3986   1.405       .  A
C3985      H3989   1.083       .  S
C3986      O3990   1.371       .  S
O3988      H3992   0.992       .  S
O3990      H3991   0.992       .  S
C3993      C3994   1.402       .  A
C3993      C3998   1.409       .  A
C3994      C3995   1.403       .  A
C3994      H3999   1.083       .  S
C3995      C3996   1.406       .  A
C3995      O4000   1.371       .  S
C3996      C3997   1.400       .  A
C3997      C3998   1.404       .  A
C3997      H4001   1.084       .  S
C3998      O4002   1.373       .  S
O4000      H4004   0.992       .  S
O4002      H4003   0.992       .  S
C4005      C4006   1.406       .  A
C4005      C4010   1.414       .  A
C4006      C4007   1.399       .  A
C4006      H4011   1.082       .  S
C4007      C4008   1.405       .  A
C4007      O4012   1.372       .  S
C4008      C4009   1.401       .  A
C4009      C4010   1.407       .  A
C4009      H4013   1.084       .  S
C4010      O4014   1.372       .  S
O4012      H4016   0.992       .  S
O4014      H4015   0.993       .  S
C4017      C4018   1.403       .  A
C4017      C4022   1.406       .  A
C4018      C4019   1.408       .  A
C4018      H4023   1.082       .  S
C4019      C4020   1.411       .  A
C4019      O4024   1.372       .  S
C4020      C4021   1.403       .  A
C4021      C4022   1.396       .  A
C4021      H4025   1.081       .  S
C4022      O4026   1.373       .  S
O4024      H4028   0.992       .  S
O4026      H4027   0.992       .  S
C4029      C4030   1.403       .  A
C4029      C4034   1.407       .  A
C4030      C4031   1.403       .  A
C4030      H4035   1.083       .  S
C4031      C4032   1.407       .  A
C4031      O4036   1.372       .  S
C4032      C4033   1.403       .  A
C4033      C4034   1.406       .  A
C4033      H4037   1.084       .  S
C4034      O4038   1.373       .  S
O4036      H4040   0.992       .  S
O4038      H4039   0.992       .  S
C4041      C4042   1.401       .  A
C4041      C4046   1.406       .  A
C4042      C4043   1.401       .  A
C4042      H4047   1.081       .  S
C4043      C4044   1.404       .  A
C4043      O4048   1.374       .  S
C4044      C4045   1.402       .  A
C4045      C4046   1.401       .  A
C4045      H4049   1.084       .  S
C4046      O4050   1.370       .  S
O4048      H4052   0.992       .  S
O4050      H4051   0.992       .  S
C4053      C4054   1.404       .  A
C4053      C4058   1.411       .  A
C4054      C4055   1.402       .  A
C4054      H4059   1.075       .  S
C4055      C4056   1.408       .  A
C4055      O4060   1.372       .  S
C4056      C4057   1.406       .  A
C4057      C4058   1.406       .  A
C4057      H4061   1.083       .  S
C4058      O4062   1.371       .  S
O4060      H4064   0.992       .  S
O4062      H4063   0.991       .  S
C4065      C4066   1.404       .  A
C4065      C4070   1.407       .  A
C4066      C4067   1.408       .  A
C4066      H4071   1.084       .  S
C4067      C4068   1.408       .  A
C4067      O4072   1.373       .  S
C4068      C4069   1.401       .  A
C4069      C4070   1.399       .  A
C4069      H4073   1.084       .  S
C4070      O4074   1.372       .  S
O4072      H4076   0.990       .  S
O4074      H4075   0.992       .  S
C4077      C4078   1.402       .  A
C4077      C4082   1.409       .  A
C4078      C4079   1.405       .  A
C4078      H4083   1.084       .  S
C4079      C4080   1.410       .  A
C4079      O4084   1.371       .  S
C4080      C4081   1.401       .  A
C4081      C4082   1.399       .  A
C4081      H4085   1.084       .  S
C4082      O4086   1.372       .  S
O4084      H4088   0.994       .  S
O4086      H4087   0.992       .  S
C4089      C4090   1.401       .  A
C4089      C4094   1.407       .  A
C4090      C4091   1.394       .  A
C4090      H4095   1.084       .  S
C4091      C4092   1.403       .  A
C4091      O4096   1.371       .  S
C4092      C4093   1.403       .  A
C4093      C4094   1.405       .  A
C4093      H4097   1.084       .  S
C4094      O4098   1.374       .  S
O4096      H4100   0.992       .  S
O4098      H4099   0.991       .  S
C4101      C4102   1.402       .  A
C4101      C4106   1.407       .  A
C4102      C4103   1.401       .  A
C4102      H4107   1.083       .  S
C4103      C4104   1.405       .  A
C4103      O4108   1.371       .  S
C4104      C4105   1.399       .  A
C4105      C4106   1.400       .  A
C4105      H4109   1.082       .  S
C4106      O4110   1.373       .  S
O4108      H4112   0.992       .  S
O4110      H4111   0.992       .  S
C4113      C4114   1.402       .  A
C4113      C4118   1.410       .  A
C4114      C4115   1.399       .  A
C4114      H4119   1.076       .  S
C4115      C4116   1.407       .  A
C4115      O4120   1.372       .  S
C4116      C4117   1.406       .  A
C4117      C4118   1.404       .  A
C4117      H4121   1.083       .  S
C4118      O4122   1.371       .  S
O4120      H4124   0.992       .  S
O4122      H4123   0.992       .  S
C4125      C4126   1.404       .  A
C4125      C4130   1.402       .  A
C4126      C4127   1.406       .  A
C4126      H4131   1.083       .  S
C4127      C4128   1.407       .  A
C4127      O4132   1.373       .  S
C4128      C4129   1.401       .  A
C4129      C4130   1.397       .  A
C4129      H4133   1.079       .  S
C4130      O4134   1.372       .  S
O4132      H4136   0.992       .  S
O4134      H4135   0.992       .  S
C4137      C4138   1.405       .  A
C4137      C4142   1.407       .  A
C4138      C4139   1.407       .  A
C4138      H4143   1.084       .  S
C4139      C4140   1.414       .  A
C4139      O4144   1.370       .  S
C4140      C4141   1.403       .  A
C4141      C4142   1.394       .  A
C4141      H4145   1.080       .  S
C4142      O4146   1.372       .  S
O4144      H4148   0.992       .  S
O4146      H4147   0.992       .  S
C4149      C4150   1.410       .  A
C4149      C4154   1.416       .  A
C4150      C4151   1.403       .  A
C4150      H4155   1.080       .  S
C4151      C4152   1.404       .  A
C4151      O4156   1.368       .  S
C4152      C4153   1.399       .  A
C4153      C4154   1.399       .  A
C4153      H4157   1.084       .  S
C4154      O4158   1.371       .  S
O4156      H4160   0.990       .  S
O4158      H4159   0.992       .  S
C4161      C4162   1.399       .  A
C4161      C4166   1.407       .  A
C4162      C4163   1.397       .  A
C4162      H4167   1.083       .  S
C4163      C4164   1.404       .  A
C4163      O4168   1.371       .  S
C4164      C4165   1.402       .  A
C4165      C4166   1.403       .  A
C4165      H4169   1.084       .  S
C4166      O4170   1.373       .  S
O4168      H4172   0.992       .  S
O4170      H4171   0.990       .  S
C4173      H4174   1.111       .  S
C4173      C4179   1.541       .  S
C4173      C4178   1.544       .  S
C4173      C4177   1.540       .  S
C4175      H4176   1.109       .  S
C4175      C4181   1.539       .  S
C4175      C4180   1.535       .  S
C4175      C4182   1.543       .  S
C4177      C4180   1.366       .  D
C4177      C4700   1.479       .  S
C4178      C4181   1.378       .  D
C4178      C4709   1.489       .  S
C4179      C4182   1.378       .  D
C4179      C4724   1.487       .  S
C4180      C4757   1.481       .  S
C4181      C4736   1.496       .  S
C4182      C4745   1.496       .  S
C4183      H4184   1.111       .  S
C4183      C4189   1.535       .  S
C4183      C4188   1.531       .  S
C4183      C4187   1.537       .  S
C4185      H4186   1.111       .  S
C4185      C4191   1.543       .  S
C4185      C4190   1.546       .  S
C4185      C4192   1.544       .  S
C4187      C4190   1.375       .  D
C4187      C4661   1.483       .  S
C4188      C4191   1.367       .  D
C4188      C4688   1.478       .  S
C4189      C4192   1.374       .  D
C4189      C4676   1.494       .  S
C4190      C4652   1.493       .  S
C4191      C4721   1.481       .  S
C4192      C4640   1.476       .  S
C4193      H4194   1.111       .  S
C4193      C4199   1.542       .  S
C4193      C4198   1.544       .  S
C4193      C4197   1.545       .  S
C4195      H4196   1.111       .  S
C4195      C4201   1.540       .  S
C4195      C4200   1.537       .  S
C4195      C4202   1.532       .  S
C4197      C4200   1.377       .  D
C4197      C4577   1.483       .  S
C4198      C4201   1.381       .  D
C4198      C4649   1.499       .  S
C4199      C4202   1.367       .  D
C4199      C4592   1.479       .  S
C4200      C4601   1.499       .  S
C4201      C4616   1.487       .  S
C4202      C4625   1.483       .  S
C4203      H4204   1.111       .  S
C4203      C4209   1.535       .  S
C4203      C4208   1.538       .  S
C4203      C4207   1.534       .  S
C4205      H4206   1.110       .  S
C4205      C4211   1.543       .  S
C4205      C4210   1.545       .  S
C4205      C4212   1.539       .  S
C4207      C4210   1.375       .  D
C4207      C4565   1.486       .  S
C4208      C4211   1.374       .  D
C4208      C4541   1.494       .  S
C4209      C4212   1.373       .  D
C4209      C4553   1.480       .  S
C4210      C4712   1.487       .  S
C4211      C4589   1.485       .  S
C4212      C4529   1.487       .  S
C4213      H4214   1.111       .  S
C4213      C4219   1.538       .  S
C4213      C4218   1.539       .  S
C4213      C4217   1.544       .  S
C4215      H4216   1.112       .  S
C4215      C4221   1.531       .  S
C4215      C4220   1.534       .  S
C4215      C4222   1.531       .  S
C4217      C4220   1.376       .  D
C4217      C4532   1.482       .  S
C4218      C4221   1.372       .  D
C4218      C4481   1.483       .  S
C4219      C4222   1.368       .  D
C4219      C4469   1.476       .  S
C4220      C4520   1.491       .  S
C4221      C4505   1.477       .  S
C4222      C4493   1.478       .  S
C4223      H4224   1.110       .  S
C4223      C4229   1.538       .  S
C4223      C4228   1.536       .  S
C4223      C4227   1.535       .  S
C4225      H4226   1.108       .  S
C4225      C4231   1.547       .  S
C4225      C4230   1.543       .  S
C4225      C4232   1.546       .  S
C4227      C4230   1.372       .  D
C4227      C4445   1.487       .  S
C4228      C4231   1.377       .  D
C4228      C4436   1.481       .  S
C4229      C4232   1.375       .  D
C4229      C4460   1.498       .  S
C4230      C4484   1.486       .  S
C4231      C4421   1.501       .  S
C4232      C4697   1.484       .  S
C4233      H4234   1.111       .  S
C4233      C4239   1.534       .  S
C4233      C4238   1.538       .  S
C4233      C4237   1.535       .  S
C4235      H4236   1.112       .  S
C4235      C4241   1.536       .  S
C4235      C4240   1.541       .  S
C4235      C4242   1.536       .  S
C4237      C4240   1.373       .  D
C4237      C4400   1.490       .  S
C4238      C4241   1.374       .  D
C4238      C4388   1.487       .  S
C4239      C4242   1.366       .  D
C4239      C4412   1.475       .  S
C4240      C4373   1.476       .  S
C4241      C4472   1.477       .  S
C4242      C4580   1.478       .  S
C4243      H4244   1.111       .  S
C4243      C4249   1.542       .  S
C4243      C4248   1.540       .  S
C4243      C4247   1.535       .  S
C4245      H4246   1.111       .  S
C4245      C4251   1.534       .  S
C4245      C4250   1.532       .  S
C4245      C4252   1.539       .  S
C4247      C4250   1.366       .  D
C4247      C4637   1.480       .  S
C4248      C4251   1.374       .  D
C4248      C4376   1.474       .  S
C4249      C4252   1.380       .  D
C4249      C4424   1.494       .  S
C4250      C4361   1.472       .  S
C4251      C4337   1.491       .  S
C4252      C4349   1.489       .  S
O4253      V4261   1.888       .  S
O4253      C4263   1.261       .  A
O4254      C4264   1.263       .  A
O4255      C4265   1.261       .  A
O4256      C4266   1.264       .  A
O4257      C4266   1.266       .  A
O4258      C4265   1.264       .  A
O4259      C4264   1.267       .  A
O4260      V4262   1.915       .  S
O4260      C4263   1.266       .  A
V4261      V4262   2.088       .  T
C4263      C4409   1.470       .  S
C4264      C4457   1.482       .  S
C4265      C4364   1.463       .  S
C4266      C4517   1.479       .  S
O4267      C4277   1.262       .  A
O4268      C4278   1.262       .  A
O4269      C4279   1.262       .  A
O4270      V4275   1.899       .  S
O4270      C4280   1.263       .  A
O4271      V4276   1.905       .  S
O4271      C4280   1.265       .  A
O4272      C4279   1.265       .  A
O4273      C4278   1.268       .  A
O4274      C4277   1.265       .  A
V4275      V4276   2.089       .  T
C4277      C4556   1.469       .  S
C4278      C4673   1.482       .  S
C4279      C4760   1.467       .  S
C4280      C4604   1.474       .  S
O4281      C4291   1.265       .  A
O4282      V4289   1.914       .  S
O4282      C4292   1.268       .  A
O4283      C4293   1.266       .  A
O4284      C4294   1.266       .  A
O4285      C4294   1.262       .  A
O4286      C4293   1.262       .  A
O4287      V4290   1.900       .  S
O4287      C4292   1.265       .  A
O4288      C4291   1.265       .  A
V4289      V4290   2.077       .  T
C4291      C4568   1.474       .  S
C4292      C4397   1.480       .  S
C4293      C4508   1.466       .  S
C4294      C4613   1.469       .  S
O4295      C4305   1.264       .  A
O4296      C4306   1.261       .  A
O4297      V4303   1.891       .  S
O4297      C4307   1.263       .  A
O4298      C4308   1.262       .  A
O4299      C4308   1.266       .  A
O4300      V4304   1.903       .  S
O4300      C4307   1.264       .  A
O4301      C4306   1.266       .  A
O4302      C4305   1.267       .  A
V4303      V4304   2.089       .  T
C4305      C4352   1.482       .  S
C4306      C4628   1.471       .  S
C4307      C4385   1.472       .  S
C4308      C4685   1.470       .  S
O4309      C4319   1.264       .  A
O4310      V4317   1.892       .  S
O4310      C4320   1.263       .  A
O4311      C4321   1.263       .  A
O4312      C4322   1.263       .  A
O4313      C4322   1.266       .  A
O4314      C4321   1.266       .  A
O4315      V4318   1.911       .  S
O4315      C4320   1.267       .  A
O4316      C4319   1.267       .  A
V4317      V4318   2.077       .  T
C4319      C4733   1.478       .  S
C4320      C4340   1.476       .  S
C4321      C4448   1.471       .  S
C4322      C4664   1.471       .  S
O4323      C4333   1.262       .  A
O4324      V4331   1.884       .  S
O4324      C4334   1.261       .  A
O4325      C4335   1.264       .  A
O4326      C4336   1.263       .  A
O4327      C4336   1.264       .  A
O4328      C4335   1.267       .  A
O4329      V4332   1.916       .  S
O4329      C4334   1.268       .  A
O4330      C4333   1.267       .  A
V4331      V4332   2.083       .  T
C4333      C4748   1.472       .  S
C4334      C4496   1.473       .  S
C4335      C4544   1.481       .  S
C4336      C4433   1.465       .  S
C4337      C4338   1.403       .  A
C4337      C4342   1.413       .  A
C4338      C4339   1.397       .  A
C4338      H4343   1.083       .  S
C4339      C4340   1.407       .  A
C4339      O4344   1.373       .  S
C4340      C4341   1.402       .  A
C4341      C4342   1.406       .  A
C4341      H4345   1.084       .  S
C4342      O4346   1.371       .  S
O4344      H4348   0.992       .  S
O4346      H4347   0.992       .  S
C4349      C4350   1.404       .  A
C4349      C4354   1.410       .  A
C4350      C4351   1.399       .  A
C4350      H4355   1.084       .  S
C4351      C4352   1.410       .  A
C4351      O4356   1.372       .  S
C4352      C4353   1.406       .  A
C4353      C4354   1.405       .  A
C4353      H4357   1.084       .  S
C4354      O4358   1.371       .  S
O4356      H4360   0.992       .  S
O4358      H4359   0.992       .  S
C4361      C4362   1.399       .  A
C4361      C4366   1.408       .  A
C4362      C4363   1.397       .  A
C4362      H4367   1.084       .  S
C4363      C4364   1.406       .  A
C4363      O4368   1.371       .  S
C4364      C4365   1.399       .  A
C4365      C4366   1.403       .  A
C4365      H4369   1.084       .  S
C4366      O4370   1.373       .  S
O4368      H4372   0.992       .  S
O4370      H4371   0.992       .  S
C4373      C4374   1.401       .  A
C4373      C4378   1.408       .  A
C4374      C4375   1.395       .  A
C4374      H4379   1.081       .  S
C4375      C4376   1.405       .  A
C4375      O4380   1.372       .  S
C4376      C4377   1.403       .  A
C4377      C4378   1.400       .  A
C4377      H4381   1.084       .  S
C4378      O4382   1.372       .  S
O4380      H4384   0.992       .  S
O4382      H4383   0.992       .  S
C4385      C4386   1.401       .  A
C4385      C4390   1.407       .  A
C4386      C4387   1.395       .  A
C4386      H4391   1.084       .  S
C4387      C4388   1.408       .  A
C4387      O4392   1.370       .  S
C4388      C4389   1.406       .  A
C4389      C4390   1.402       .  A
C4389      H4393   1.077       .  S
C4390      O4394   1.372       .  S
O4392      H4396   0.992       .  S
O4394      H4395   0.992       .  S
C4397      C4398   1.404       .  A
C4397      C4402   1.409       .  A
C4398      C4399   1.402       .  A
C4398      H4403   1.084       .  S
C4399      C4400   1.407       .  A
C4399      O4404   1.372       .  S
C4400      C4401   1.406       .  A
C4401      C4402   1.405       .  A
C4401      H4405   1.083       .  S
C4402      O4406   1.372       .  S
O4404      H4408   0.992       .  S
O4406      H4407   0.992       .  S
C4409      C4410   1.401       .  A
C4409      C4414   1.408       .  A
C4410      C4411   1.395       .  A
C4410      H4415   1.082       .  S
C4411      C4412   1.403       .  A
C4411      O4416   1.372       .  S
C4412      C4413   1.404       .  A
C4413      C4414   1.405       .  A
C4413      H4417   1.084       .  S
C4414      O4418   1.372       .  S
O4416      H4420   0.992       .  S
O4418      H4419   0.992       .  S
C4421      C4422   1.408       .  A
C4421      C4426   1.409       .  A
C4422      C4423   1.405       .  A
C4422      H4427   1.076       .  S
C4423      C4424   1.408       .  A
C4423      O4428   1.373       .  S
C4424      C4425   1.401       .  A
C4425      C4426   1.398       .  A
C4425      H4429   1.076       .  S
C4426      O4430   1.369       .  S
O4428      H4432   0.992       .  S
O4430      H4431   0.992       .  S
C4433      C4434   1.402       .  A
C4433      C4438   1.403       .  A
C4434      C4435   1.401       .  A
C4434      H4439   1.084       .  S
C4435      C4436   1.406       .  A
C4435      O4440   1.372       .  S
C4436      C4437   1.404       .  A
C4437      C4438   1.399       .  A
C4437      H4441   1.081       .  S
C4438      O4442   1.371       .  S
O4440      H4444   0.992       .  S
O4442      H4443   0.992       .  S
C4445      C4446   1.407       .  A
C4445      C4450   1.407       .  A
C4446      C4447   1.404       .  A
C4446      H4451   1.083       .  S
C4447      C4448   1.409       .  A
C4447      O4452   1.371       .  S
C4448      C4449   1.398       .  A
C4449      C4450   1.395       .  A
C4449      H4453   1.084       .  S
C4450      O4454   1.368       .  S
O4452      H4456   0.990       .  S
O4454      H4455   0.992       .  S
C4457      C4458   1.404       .  A
C4457      C4462   1.406       .  A
C4458      C4459   1.402       .  A
C4458      H4463   1.084       .  S
C4459      C4460   1.412       .  A
C4459      O4464   1.372       .  S
C4460      C4461   1.406       .  A
C4461      C4462   1.403       .  A
C4461      H4465   1.077       .  S
C4462      O4466   1.371       .  S
O4464      H4468   0.992       .  S
O4466      H4467   0.981       .  S
C4469      C4470   1.400       .  A
C4469      C4474   1.406       .  A
C4470      C4471   1.402       .  A
C4470      H4475   1.082       .  S
C4471      C4472   1.406       .  A
C4471      O4476   1.375       .  S
C4472      C4473   1.402       .  A
C4473      C4474   1.401       .  A
C4473      H4477   1.083       .  S
C4474      O4478   1.372       .  S
O4476      H4480   0.992       .  S
O4478      H4479   0.992       .  S
C4481      C4482   1.402       .  A
C4481      C4486   1.408       .  A
C4482      C4483   1.400       .  A
C4482      H4487   1.084       .  S
C4483      C4484   1.407       .  A
C4483      O4488   1.370       .  S
C4484      C4485   1.404       .  A
C4485      C4486   1.402       .  A
C4485      H4489   1.084       .  S
C4486      O4490   1.372       .  S
O4488      H4492   0.992       .  S
O4490      H4491   0.992       .  S
C4493      C4494   1.399       .  A
C4493      C4498   1.409       .  A
C4494      C4495   1.395       .  A
C4494      H4499   1.084       .  S
C4495      C4496   1.409       .  A
C4495      O4500   1.372       .  S
C4496      C4497   1.403       .  A
C4497      C4498   1.405       .  A
C4497      H4501   1.084       .  S
C4498      O4502   1.370       .  S
O4500      H4504   0.992       .  S
O4502      H4503   0.992       .  S
C4505      C4506   1.402       .  A
C4505      C4510   1.408       .  A
C4506      C4507   1.397       .  A
C4506      H4511   1.084       .  S
C4507      C4508   1.407       .  A
C4507      O4512   1.372       .  S
C4508      C4509   1.401       .  A
C4509      C4510   1.399       .  A
C4509      H4513   1.083       .  S
C4510      O4514   1.371       .  S
O4512      H4516   0.992       .  S
O4514      H4515   0.992       .  S
C4517      C4518   1.405       .  A
C4517      C4522   1.408       .  A
C4518      C4519   1.406       .  A
C4518      H4523   1.084       .  S
C4519      C4520   1.411       .  A
C4519      O4524   1.372       .  S
C4520      C4521   1.404       .  A
C4521      C4522   1.398       .  A
C4521      H4525   1.084       .  S
C4522      O4526   1.372       .  S
O4524      H4528   0.992       .  S
O4526      H4527   0.992       .  S
C4529      C4530   1.400       .  A
C4529      C4534   1.411       .  A
C4530      C4531   1.394       .  A
C4530      H4535   1.077       .  S
C4531      C4532   1.404       .  A
C4531      O4536   1.369       .  S
C4532      C4533   1.403       .  A
C4533      C4534   1.406       .  A
C4533      H4537   1.084       .  S
C4534      O4538   1.372       .  S
O4536      H4540   0.992       .  S
O4538      H4539   0.992       .  S
C4541      C4542   1.405       .  A
C4541      C4546   1.411       .  A
C4542      C4543   1.402       .  A
C4542      H4547   1.078       .  S
C4543      C4544   1.408       .  A
C4543      O4548   1.371       .  S
C4544      C4545   1.403       .  A
C4545      C4546   1.402       .  A
C4545      H4549   1.084       .  S
C4546      O4550   1.372       .  S
O4548      H4552   0.993       .  S
O4550      H4551   0.992       .  S
C4553      C4554   1.402       .  A
C4553      C4558   1.406       .  A
C4554      C4555   1.399       .  A
C4554      H4559   1.082       .  S
C4555      C4556   1.404       .  A
C4555      O4560   1.371       .  S
C4556      C4557   1.404       .  A
C4557      C4558   1.403       .  A
C4557      H4561   1.084       .  S
C4558      O4562   1.372       .  S
O4560      H4564   0.992       .  S
O4562      H4563   0.992       .  S
C4565      C4566   1.402       .  A
C4565      C4570   1.410       .  A
C4566      C4567   1.396       .  A
C4566      H4571   1.081       .  S
C4567      C4568   1.405       .  A
C4567      O4572   1.372       .  S
C4568      C4569   1.404       .  A
C4569      C4570   1.406       .  A
C4569      H4573   1.084       .  S
C4570      O4574   1.372       .  S
O4572      H4576   0.992       .  S
O4574      H4575   0.991       .  S
C4577      C4578   1.402       .  A
C4577      C4582   1.407       .  A
C4578      C4579   1.397       .  A
C4578      H4583   1.078       .  S
C4579      C4580   1.403       .  A
C4579      O4584   1.372       .  S
C4580      C4581   1.405       .  A
C4581      C4582   1.404       .  A
C4581      H4585   1.083       .  S
C4582      O4586   1.371       .  S
O4584      H4588   0.992       .  S
O4586      H4587   0.992       .  S
C4589      C4590   1.402       .  A
C4589      C4594   1.409       .  A
C4590      C4591   1.403       .  A
C4590      H4595   1.084       .  S
C4591      C4592   1.407       .  A
C4591      O4596   1.371       .  S
C4592      C4593   1.399       .  A
C4593      C4594   1.403       .  A
C4593      H4597   1.084       .  S
C4594      O4598   1.372       .  S
O4596      H4600   0.992       .  S
O4598      H4599   0.992       .  S
C4601      C4602   1.407       .  A
C4601      C4606   1.414       .  A
C4602      C4603   1.401       .  A
C4602      H4607   1.082       .  S
C4603      C4604   1.406       .  A
C4603      O4608   1.372       .  S
C4604      C4605   1.399       .  A
C4605      C4606   1.405       .  A
C4605      H4609   1.084       .  S
C4606      O4610   1.371       .  S
O4608      H4612   0.992       .  S
O4610      H4611   0.993       .  S
C4613      C4614   1.401       .  A
C4613      C4618   1.405       .  A
C4614      C4615   1.404       .  A
C4614      H4619   1.082       .  S
C4615      C4616   1.411       .  A
C4615      O4620   1.371       .  S
C4616      C4617   1.404       .  A
C4617      C4618   1.395       .  A
C4617      H4621   1.080       .  S
C4618      O4622   1.373       .  S
O4620      H4624   0.992       .  S
O4622      H4623   0.992       .  S
C4625      C4626   1.402       .  A
C4625      C4630   1.407       .  A
C4626      C4627   1.401       .  A
C4626      H4631   1.083       .  S
C4627      C4628   1.406       .  A
C4627      O4632   1.372       .  S
C4628      C4629   1.403       .  A
C4629      C4630   1.406       .  A
C4629      H4633   1.084       .  S
C4630      O4634   1.373       .  S
O4632      H4636   0.992       .  S
O4634      H4635   0.991       .  S
C4637      C4638   1.401       .  A
C4637      C4642   1.407       .  A
C4638      C4639   1.400       .  A
C4638      H4643   1.079       .  S
C4639      C4640   1.404       .  A
C4639      O4644   1.373       .  S
C4640      C4641   1.402       .  A
C4641      C4642   1.400       .  A
C4641      H4645   1.084       .  S
C4642      O4646   1.369       .  S
O4644      H4648   0.991       .  S
O4646      H4647   0.992       .  S
C4649      C4650   1.405       .  A
C4649      C4654   1.410       .  A
C4650      C4651   1.402       .  A
C4650      H4655   1.075       .  S
C4651      C4652   1.406       .  A
C4651      O4656   1.372       .  S
C4652      C4653   1.406       .  A
C4653      C4654   1.405       .  A
C4653      H4657   1.083       .  S
C4654      O4658   1.371       .  S
O4656      H4660   0.992       .  S
O4658      H4659   0.991       .  S
C4661      C4662   1.405       .  A
C4661      C4666   1.405       .  A
C4662      C4663   1.407       .  A
C4662      H4667   1.084       .  S
C4663      C4664   1.408       .  A
C4663      O4668   1.373       .  S
C4664      C4665   1.400       .  A
C4665      C4666   1.396       .  A
C4665      H4669   1.084       .  S
C4666      O4670   1.371       .  S
O4668      H4672   0.991       .  S
O4670      H4671   0.992       .  S
C4673      C4674   1.403       .  A
C4673      C4678   1.410       .  A
C4674      C4675   1.408       .  A
C4674      H4679   1.084       .  S
C4675      C4676   1.413       .  A
C4675      O4680   1.371       .  S
C4676      C4677   1.402       .  A
C4677      C4678   1.400       .  A
C4677      H4681   1.084       .  S
C4678      O4682   1.372       .  S
O4680      H4684   0.994       .  S
O4682      H4683   0.992       .  S
C4685      C4686   1.402       .  A
C4685      C4690   1.407       .  A
C4686      C4687   1.398       .  A
C4686      H4691   1.084       .  S
C4687      C4688   1.404       .  A
C4687      O4692   1.371       .  S
C4688      C4689   1.403       .  A
C4689      C4690   1.406       .  A
C4689      H4693   1.083       .  S
C4690      O4694   1.373       .  S
O4692      H4696   0.992       .  S
O4694      H4695   0.991       .  S
C4697      C4698   1.403       .  A
C4697      C4702   1.408       .  A
C4698      C4699   1.402       .  A
C4698      H4703   1.083       .  S
C4699      C4700   1.406       .  A
C4699      O4704   1.371       .  S
C4700      C4701   1.399       .  A
C4701      C4702   1.402       .  A
C4701      H4705   1.081       .  S
C4702      O4706   1.373       .  S
O4704      H4708   0.992       .  S
O4706      H4707   0.992       .  S
C4709      C4710   1.402       .  A
C4709      C4714   1.409       .  A
C4710      C4711   1.399       .  A
C4710      H4715   1.077       .  S
C4711      C4712   1.406       .  A
C4711      O4716   1.372       .  S
C4712      C4713   1.406       .  A
C4713      C4714   1.403       .  A
C4713      H4717   1.083       .  S
C4714      O4718   1.372       .  S
O4716      H4720   0.992       .  S
O4718      H4719   0.991       .  S
C4721      C4722   1.403       .  A
C4721      C4726   1.404       .  A
C4722      C4723   1.406       .  A
C4722      H4727   1.083       .  S
C4723      C4724   1.407       .  A
C4723      O4728   1.372       .  S
C4724      C4725   1.404       .  A
C4725      C4726   1.400       .  A
C4725      H4729   1.079       .  S
C4726      O4730   1.372       .  S
O4728      H4732   0.992       .  S
O4730      H4731   0.992       .  S
C4733      C4734   1.404       .  A
C4733      C4738   1.407       .  A
C4734      C4735   1.407       .  A
C4734      H4739   1.084       .  S
C4735      C4736   1.414       .  A
C4735      O4740   1.371       .  S
C4736      C4737   1.403       .  A
C4737      C4738   1.396       .  A
C4737      H4741   1.079       .  S
C4738      O4742   1.372       .  S
O4740      H4744   0.992       .  S
O4742      H4743   0.992   1_565  S
C4745      C4746   1.409       .  A
C4745      C4750   1.413       .  A
C4746      C4747   1.402       .  A
C4746      H4751   1.081       .  S
C4747      C4748   1.405       .  A
C4747      O4752   1.369       .  S
C4748      C4749   1.399       .  A
C4749      C4750   1.398       .  A
C4749      H4753   1.084       .  S
C4750      O4754   1.371       .  S
O4752      H4756   0.991       .  S
O4754      H4755   0.992       .  S
C4757      C4758   1.400       .  A
C4757      C4762   1.407       .  A
C4758      C4759   1.399       .  A
C4758      H4763   1.082       .  S
C4759      C4760   1.404       .  A
C4759      O4764   1.371       .  S
C4760      C4761   1.402       .  A
C4761      C4762   1.406       .  A
C4761      H4765   1.084       .  S
C4762      O4766   1.374       .  S
O4764      H4768   0.992       .  S
O4766      H4767   0.991       .  S
