geometry optimzed in LAMMPS
_audit_creation_date              2020-12-01 
_audit_creation_method            'lammps2cif' 
_symmetry_space_group_name_H-M    'P1' 
_symmetry_Int_Tables_number       1 
_symmetry_cell_setting            triclinic 
loop_ 
_symmetry_equiv_pos_as_xyz 
  x,y,z 
_cell_length_a                    18.74875798 
_cell_length_b                    40.87274445687451 
_cell_length_c                    20.28552664779617 
_cell_angle_alpha                 91.19791069434648 
_cell_angle_beta                  88.92010281785518 
_cell_angle_gamma                 91.17875162919826 
loop_ 
_atom_site_label 
_atom_site_type_symbol 
_atom_site_fract_x 
_atom_site_fract_y 
_atom_site_fract_z 
_atom_site_charge 
C1          C  0.14580755  0.07626600  0.18169135     0.87000
C2          C  0.20352098  0.09864287  0.15015220    -0.53300
C3          C  0.24713952  0.11538142  0.19019923     0.09900
C4          C  0.22977745  0.10653468  0.26436866     0.20900
C5          C  0.18744933  0.05201321  0.22400683    -0.54000
C6          C  0.23372596  0.06624235  0.26813053     0.10000
C7          C  0.10618356  0.09975646  0.23031328    -0.53500
C8          C  0.14728132  0.11714767  0.27234220     0.10600
H9          H  0.20838288  0.10310641  0.09815555     0.15100
H10         H  0.26572646  0.11969830  0.29923601     0.00800
H11         H  0.18375801  0.02568542  0.21632106     0.15400
H12         H  0.05305105  0.10828974  0.22352247     0.15200
C13         C  0.11973679  0.15167039  0.29935726     0.30500
C14         C  0.12142375  0.21454453  0.35256022     0.30500
C15         C  0.14940609  0.17891874  0.25523823    -0.05700
C16         C  0.04051464  0.16574273  0.31624712    -0.06500
C17         C  0.15569180  0.15708954  0.36438405    -0.06400
C18         C  0.14915891  0.21064671  0.28213804    -0.05700
C19         C  0.04111564  0.19822979  0.34467027    -0.06500
C20         C  0.15670375  0.18853770  0.39098920    -0.06400
C21         C  0.13620468  0.23098910  0.23044399    -0.31700
N22         N  0.13658757  0.21423036  0.17263036     0.14800
C23         C  0.13941831  0.18226854  0.18825462    -0.31800
H24         H  0.12638597  0.16237759  0.15437109     0.16700
C25         C  0.96694630  0.20611267  0.35383041    -0.30700
N26         N  0.92115338  0.18111315  0.33170071     0.13500
C27         C  0.96652917  0.15677365  0.30856972    -0.30700
C28         C  0.15405792  0.18560689  0.45836040    -0.31000
N29         N  0.15485181  0.15392350  0.47302645     0.14000
H30         H  0.14073713  0.20477450  0.49336461     0.16600
C31         C  0.15170357  0.13650655  0.41661266    -0.31000
H32         H  0.13170951  0.11188972  0.41400375     0.16600
H33         H  0.94771101  0.13381243  0.28710763     0.16600
H34         H  0.11710592  0.25565601  0.23509777     0.16700
H35         H  0.94821437  0.22921425  0.37366884     0.16600
C36         C  0.13927275  0.29338244  0.46354975     0.87000
C37         C  0.18439218  0.27305986  0.51120816    -0.53300
C38         C  0.23569506  0.25390959  0.48096326     0.09900
C39         C  0.23407840  0.25796233  0.40322717     0.20900
C40         C  0.19317538  0.31389249  0.42338697    -0.54000
C41         C  0.24562933  0.29714641  0.39295040     0.10000
C42         C  0.10644599  0.26699875  0.41751575    -0.53500
C43         C  0.15198406  0.24789613  0.38447620     0.10600
H44         H  0.17523925  0.27307718  0.56413537     0.15100
H45         H  0.27447778  0.24284707  0.37687197     0.00800
H46         H  0.19124802  0.34038968  0.42165378     0.15400
H47         H  0.05022058  0.26021155  0.41912144     0.15200
C48         C  0.29240137  0.04570077  0.30853825     0.30500
C49         C  0.41191364  0.03566816  0.38471338     0.30500
C50         C  0.28910436  0.05739854  0.38203887    -0.05700
C51         C  0.31430902  0.00621987  0.31941962    -0.06500
C52         C  0.36520353  0.06001413  0.28381942    -0.06400
C53         C  0.34858472  0.05214771  0.41903694    -0.05700
C54         C  0.37659942  0.00280953  0.35851863    -0.06500
C55         C  0.42320785  0.05532897  0.32187757    -0.06400
C56         C  0.33144309  0.05921972  0.48432945    -0.31700
N57         N  0.26436160  0.07066758  0.48946251     0.14800
C58         C  0.23678068  0.06735410  0.42755595    -0.31800
H59         H  0.18117929  0.06834920  0.41690314     0.16700
C60         C  0.37856337  0.46778517  0.36623766    -0.30700
N61         N  0.33152406  0.44895354  0.33100577     0.13500
C62         C  0.28747457  0.47223182  0.30161197    -0.30700
C63         C  0.48046022  0.07163657  0.29258142    -0.31000
N64         N  0.45962376  0.08892788  0.24015138     0.14000
H65         H  0.53433633  0.06824811  0.30593090     0.16600
C66         C  0.39066653  0.07824239  0.23053329    -0.31000
H67         H  0.36198212  0.08102559  0.18561636     0.16600
H68         H  0.24514205  0.46518507  0.26839202     0.16600
H69         H  0.36436609  0.05418376  0.52555017     0.16700
H70         H  0.42189114  0.45783648  0.39339946     0.16600
C71         C  0.61140317  0.10320257  0.11556049     0.87000
C72         C  0.65272026  0.12408695  0.16894365    -0.53300
C73         C  0.61324844  0.14424081  0.20753612     0.09900
C74         C  0.53096140  0.14238354  0.18492765     0.20900
C75         C  0.55018204  0.08612440  0.15519389    -0.54000
C76         C  0.50935002  0.10501757  0.19303333     0.10000
C77         C  0.57310098  0.12810434  0.07226553    -0.53500
C78         C  0.52654848  0.14826398  0.10506756     0.10600
H79         H  0.70829193  0.12120465  0.18055616     0.15100
H80         H  0.49741803  0.15908635  0.21532129     0.00800
H81         H  0.53840333  0.06021133  0.15682438     0.15400
H82         H  0.57862643  0.12840097  0.01914140     0.15200
C83         C  0.15475909  0.10904974  0.63330742     0.87000
C84         C  0.12432410  0.13052732  0.57882486    -0.53300
C85         C  0.17318931  0.14082519  0.53443538     0.09900
C86         C  0.24729539  0.12884249  0.54582523     0.20900
C87         C  0.19019595  0.08053610  0.59222317    -0.54000
C88         C  0.23739451  0.09116819  0.54438560     0.10000
C89         C  0.21701963  0.12914422  0.66383322    -0.53500
C90         C  0.26475426  0.14052105  0.61864851     0.10600
H91         H  0.06794556  0.13514790  0.57295021     0.15100
H92         H  0.28522507  0.13764327  0.50702310     0.00800
H93         H  0.17636126  0.05489835  0.59566978     0.15400
H94         H  0.22079744  0.13508437  0.71587238     0.15200
C95         C  0.64339761  0.19082923  0.40015199     0.30500
C96         C  0.64292222  0.16002917  0.27562917     0.30500
C97         C  0.60454955  0.20684615  0.34597970    -0.05700
C98         C  0.72230523  0.18748897  0.36526467    -0.06500
C99         C  0.61889683  0.15472472  0.39710557    -0.06400
C100        C  0.60252331  0.19146072  0.28495996    -0.05700
C101        C  0.72235854  0.17120593  0.30153701    -0.06500
C102        C  0.61792243  0.13942210  0.33457755    -0.06400
C103        C  0.59332963  0.21555503  0.24022345    -0.31700
N104        N  0.58712950  0.24454465  0.27199361     0.14800
C105        C  0.60076895  0.23974839  0.33544905    -0.31800
H106        H  0.61821526  0.25861328  0.36970240     0.16700
C107        C  0.79666290  0.16721859  0.28435669    -0.30700
N108        N  0.84198429  0.18076695  0.33177376     0.13500
C109        C  0.79618669  0.19301658  0.38059639    -0.30700
C110        C  0.62854666  0.10649890  0.34512531    -0.31000
N111        N  0.63016379  0.10021855  0.41048520     0.14000
H112        H  0.64002984  0.08847693  0.30676971     0.16600
C113        C  0.63209199  0.12999257  0.44096630    -0.31000
H114        H  0.64375736  0.13347692  0.49271756     0.17300
H115        H  0.81474617  0.20415243  0.42612168     0.16600
H116        H  0.60445207  0.21259035  0.18892990     0.16700
H117        H  0.81567509  0.15469793  0.24012315     0.16600
C118        C  0.61498090  0.32311471  0.18130867     0.87000
C119        C  0.57924605  0.30417513  0.12201989    -0.53300
C120        C  0.52310604  0.28447274  0.13916165     0.09900
C121        C  0.50782734  0.28519692  0.21332391     0.20900
C122        C  0.55334457  0.34185865  0.21750652    -0.54000
C123        C  0.49657222  0.32197636  0.23502775     0.10000
C124        C  0.63412379  0.29520385  0.22703286    -0.53500
C125        C  0.57833148  0.27539976  0.24225948     0.10600
H126        H  0.60096304  0.30378888  0.07200451     0.15100
H127        H  0.46427525  0.26777974  0.22765536     0.00800
H128        H  0.55613151  0.36774789  0.23034026     0.15400
H129        H  0.68720870  0.28851405  0.24035652     0.15200
C130        C  0.55408434  0.03366980  0.52455655     0.87000
C131        C  0.51001086  0.06149693  0.55531223    -0.53300
C132        C  0.49036848  0.08413136  0.51340586     0.09900
C133        C  0.50741353  0.07587720  0.44187185     0.20900
C134        C  0.50311971  0.01804971  0.47231462    -0.54000
C135        C  0.47735127  0.04029965  0.42912280     0.10000
C136        C  0.61400231  0.05157381  0.48291126    -0.53500
C137        C  0.58853995  0.07373751  0.43950119     0.10600
H138        H  0.49741050  0.06413714  0.60747483     0.15100
H139        H  0.48671150  0.09515289  0.41017516     0.00800
H140        H  0.48501734  0.99288484  0.47197309     0.15400
H141        H  0.67062282  0.04914191  0.49132687     0.15200
C142        C  0.30990188  0.31588855  0.35606875     0.30500
C143        C  0.43054625  0.32968435  0.27977190     0.30500
C144        C  0.31008570  0.30354631  0.28429430    -0.05700
C145        C  0.32680748  0.35553548  0.34406048    -0.06500
C146        C  0.38234538  0.30390550  0.38214787    -0.06400
C147        C  0.36823672  0.31191438  0.24609763    -0.05700
C148        C  0.39010939  0.36191714  0.30533313    -0.06500
C149        C  0.44137201  0.31056994  0.34406126    -0.06400
C150        C  0.35058421  0.30594819  0.18094978    -0.31700
N151        N  0.28537762  0.29116231  0.17848670     0.14800
C152        C  0.25949192  0.29086830  0.24167445    -0.31800
H153        H  0.20640915  0.28434728  0.25640226     0.16700
C154        C  0.39411837  0.39639916  0.29481090    -0.30700
N155        N  0.33683332  0.41281882  0.32300678     0.13500
C156        C  0.29672540  0.38794271  0.35389177    -0.30700
C157        C  0.49915564  0.29611305  0.37435410    -0.31000
N158        N  0.47766069  0.27805760  0.42756308     0.14000
H159        H  0.55385490  0.30058697  0.35981607     0.16600
C160        C  0.40724951  0.28678125  0.43605965    -0.31000
H161        H  0.37667609  0.28461168  0.48110406     0.16600
H162        H  0.24845698  0.39263860  0.38222951     0.16600
H163        H  0.38282550  0.31299576  0.13889789     0.16700
H164        H  0.43674397  0.40853960  0.26750662     0.16600
C165        C  0.18701629  0.26402632  0.02080771     0.87000
C166        C  0.13665581  0.24280365  0.06565535    -0.53300
C167        C  0.17158561  0.22813453  0.11551853     0.09900
C168        C  0.25177041  0.23620168  0.11666835     0.20900
C169        C  0.22323341  0.28830448  0.07085372    -0.54000
C170        C  0.25561540  0.27365953  0.12181931     0.10000
C171        C  0.24610272  0.24039368  0.99760397    -0.53500
C172        C  0.28131819  0.22622405  0.04679907     0.10600
H173        H  0.07931288  0.24110930  0.06345530     0.15100
H174        H  0.27920585  0.22475851  0.15815498     0.00800
H175        H  0.22054598  0.31472703  0.06754505     0.15400
H176        H  0.25962166  0.23650809  0.94620470     0.15200
C177        C  0.62368024  0.25236923  0.55083540     0.87000
C178        C  0.65828349  0.22749172  0.50351660    -0.53300
C179        C  0.61301561  0.21020086  0.46462488     0.09900
C180        C  0.52977240  0.22026426  0.48154495     0.20900
C181        C  0.57638322  0.27438389  0.50718029    -0.54000
C182        C  0.52524798  0.25892203  0.47122943     0.10000
C183        C  0.56785309  0.23328773  0.59369670    -0.53500
C184        C  0.51655826  0.21670084  0.56028698     0.10600
H185        H  0.71573739  0.22573077  0.49760088     0.15100
H186        H  0.49083312  0.20608890  0.45130331     0.00800
H187        H  0.58097110  0.30076824  0.50544488     0.15400
H188        H  0.56514413  0.23468106  0.64699081     0.15200
C189        C  0.46586603  0.16825529  0.06650857     0.30500
C190        C  0.34681160  0.20440427  0.03912273     0.30500
C191        C  0.46844647  0.20442300  0.08729488    -0.05700
C192        C  0.44751579  0.17276504  0.98517368    -0.06500
C193        C  0.39197819  0.15698644  0.09728545    -0.06400
C194        C  0.40813410  0.22209468  0.07490963    -0.05700
C195        C  0.38557684  0.19173551  0.97485616    -0.06500
C196        C  0.33342643  0.17298693  0.07698811    -0.06400
C197        C  0.42674335  0.25479062  0.08031773    -0.31700
N198        N  0.49582942  0.25812103  0.09735197     0.14800
C199        C  0.52282134  0.22752661  0.09543307    -0.31800
H200        H  0.57912222  0.22271152  0.09345688     0.16700
C201        C  0.37601736  0.19630905  0.90674350    -0.30700
N202        N  0.42868075  0.18241666  0.86891681     0.13500
C203        C  0.47184076  0.16751329  0.91593950    -0.30700
C204        C  0.27441689  0.16048913  0.11022333    -0.31000
N205        N  0.29380415  0.14098491  0.16021248     0.14000
H206        H  0.22103450  0.16405930  0.09413733     0.16600
C207        C  0.36611634  0.14102323  0.15424798    -0.31000
H208        H  0.39686678  0.13450870  0.19428248     0.16600
H209        H  0.51845185  0.15361554  0.90207226     0.16600
H210        H  0.39345204  0.27464637  0.06705280     0.16700
H211        H  0.33262000  0.20900391  0.88534120     0.16600
C212        C  0.45062964  0.19926601  0.59785550     0.30500
C213        C  0.32925478  0.16357537  0.63136618     0.30500
C214        C  0.44522899  0.16480561  0.57115183    -0.05700
C215        C  0.43693566  0.19266366  0.67965697    -0.06500
C216        C  0.37792498  0.21281867  0.57487442    -0.06400
C217        C  0.38759147  0.14684699  0.59163367    -0.05700
C218        C  0.37339051  0.17394584  0.69363873    -0.06500
C219        C  0.31742775  0.19685663  0.59790118    -0.06400
C220        C  0.40047620  0.11489953  0.57596967    -0.31700
N221        N  0.45876754  0.11368356  0.53661263     0.14800
C222        C  0.48801832  0.14420208  0.53514922    -0.31800
H223        H  0.53836773  0.15106771  0.51459280     0.16700
C224        C  0.36951138  0.16702021  0.76159308    -0.30700
N225        N  0.42634615  0.18008307  0.79563253     0.13500
C226        C  0.46698856  0.19619018  0.74616733    -0.30700
C227        C  0.25889319  0.21124202  0.56893163    -0.31000
N228        N  0.28094425  0.23164735  0.51965438     0.14000
H229        H  0.20397856  0.20590138  0.58230283     0.16600
C230        C  0.35369879  0.22904336  0.51951032    -0.31000
H231        H  0.38654890  0.23292223  0.47695583     0.16600
H232        H  0.51548441  0.20994012  0.75668428     0.16600
H233        H  0.37096123  0.09418132  0.59513027     0.16700
H234        H  0.32725899  0.15286229  0.78451703     0.16600
O235        O  0.93603533  0.51689104  0.88292163    -0.79600
O236        O  0.71630073  0.50950219  0.85369197    -0.79700
O237        O  0.81852778  0.52596228  0.74991123    -0.79700
O238        O  0.79905969  0.42722244  0.95653602    -0.79600
O239        O  0.70870485  0.50959490  0.72195927    -0.79700
O240        O  0.86019920  0.47376575  0.97036609    -0.79700
O241        O  0.70184137  0.46445715  0.90714726    -0.79600
O242        O  0.95674251  0.51197993  0.77492986    -0.79700
C243        C  0.96778794  0.52622695  0.83027123     1.10000
C244        C  0.68108532  0.49272810  0.89460697     1.09900
C245        C  0.75656524  0.53209233  0.72642337     1.10100
C246        C  0.82736702  0.44881770  0.99411982     1.09900
O247        O  0.92420032  0.42047623  0.90433257    -0.79600
O248        O  0.79713991  0.45827787  0.69989778    -0.79700
O249        O  0.93371727  0.44170163  0.74812128    -0.79700
O250        O  0.70201617  0.40637877  0.85523831    -0.79600
O251        O  0.68381204  0.44716574  0.78465195    -0.79700
O252        O  0.00048086  0.46161065  0.82524822    -0.79700
O253        O  0.84592608  0.40350978  0.83051827    -0.79600
O254        O  0.88938075  0.48732812  0.66001708    -0.79700
Co255      Co  0.92631500  0.46911488  0.89480977     1.51500
Co256      Co  0.76203403  0.48446135  0.78108819     1.51700
Co257      Co  0.87409895  0.48266002  0.75253262     1.51600
Co258      Co  0.77616475  0.43612552  0.86262288     1.51500
O259        O  0.83955189  0.47081847  0.84088771    -1.41600
C260        C  0.89426373  0.39723871  0.87112471     1.10000
C261        C  0.84359523  0.46404340  0.65364043     1.10100
C262        C  0.99029323  0.44017655  0.78095658     1.10000
C263        C  0.66595573  0.41911365  0.81006238     1.10000
C264        C  0.65140235  0.29120165  0.69818826    -0.13900
C265        C  0.62938593  0.32069771  0.67026809     0.16500
C266        C  0.66078246  0.32812385  0.60669214     0.02800
C267        C  0.69399240  0.30320844  0.57015189    -0.12400
C268        C  0.68095617  0.27123527  0.58983500    -0.03400
C269        C  0.68240084  0.26712869  0.65806287     0.02000
C270        C  0.58176372  0.34349389  0.70934825     0.08900
N271        N  0.65688885  0.35915029  0.57575514     0.65200
H272        H  0.70934842  0.30771250  0.51927741     0.18200
N273        N  0.70895085  0.23793766  0.68550240     0.75700
H274        H  0.64532015  0.28613048  0.74963649     0.09700
C275        C  0.57561962  0.34216773  0.77893801     0.03400
C276        C  0.58754826  0.37092079  0.81544673    -0.05300
C277        C  0.60776602  0.39942492  0.78217758    -0.23700
C278        C  0.58851924  0.40182230  0.71550274     0.12600
C279        C  0.56547522  0.37350668  0.68240027    -0.12900
N280        N  0.55452041  0.31301443  0.81251590     0.64300
H281        H  0.59020374  0.37000685  0.86857655     0.12100
N282        N  0.60076860  0.43060730  0.67797029     0.60900
H283        H  0.54921312  0.37501231  0.63196257     0.08300
O284        O  0.66788850  0.21949079  0.71868685    -0.40500
O285        O  0.77553489  0.23490069  0.68978018    -0.39700
O286        O  0.71054731  0.37815946  0.57761797    -0.39700
O287        O  0.61311003  0.36233776  0.52989405    -0.37400
O288        O  0.66318652  0.43717419  0.65734755    -0.38300
O289        O  0.54947818  0.44098274  0.64591261    -0.34500
O290        O  0.59253714  0.30270970  0.85810471    -0.35900
O291        O  0.49098506  0.30257975  0.80793980    -0.40200
C292        C  0.13141880  0.38253471  0.83325428    -0.13900
C293        C  0.10103248  0.35209092  0.81576949     0.16500
C294        C  0.04345149  0.35141375  0.77140020     0.02800
C295        C  0.01209999  0.38092744  0.75331767    -0.12400
C296        C  0.03773968  0.41125217  0.77812567    -0.03400
C297        C  0.10186001  0.41169294  0.81378807     0.02000
C298        C  0.12262502  0.32324763  0.85455433     0.08900
N299        N  0.01445232  0.32114248  0.74627679     0.65200
H300        H  0.96419264  0.37985377  0.72431514     0.18200
N301        N  0.13591677  0.44156664  0.83460317     0.75700
H302        H  0.17519454  0.38414017  0.86723264     0.09700
C303        C  0.19473267  0.31832756  0.86977020     0.03400
C304        C  0.21168472  0.29949038  0.92370688    -0.05300
C305        C  0.15926276  0.28246600  0.96114607    -0.23700
C306        C  0.08753961  0.28406860  0.94016638     0.12600
C307        C  0.07012000  0.30529838  0.88948852    -0.12900
N308        N  0.25181189  0.33226210  0.83106133     0.64300
H309        H  0.26744715  0.29797760  0.93631631     0.12100
N310        N  0.03126396  0.26450048  0.96791451     0.60900
H311        H  0.01438129  0.30870273  0.87981437     0.08300
O312        O  0.12502342  0.45205263  0.89278434    -0.40500
O313        O  0.19131256  0.45100946  0.80368312    -0.39700
O314        O  0.95787251  0.30954081  0.77171681    -0.39700
O315        O  0.03317635  0.31120738  0.68943995    -0.37400
O316        O  0.98548098  0.27783757  0.00548405    -0.38300
O317        O  0.01636853  0.23713463  0.94106452    -0.34500
O318        O  0.29266238  0.35362851  0.85695439    -0.35900
O319        O  0.27332478  0.31675676  0.78029878    -0.40200
C320        C  0.56823709  0.04198843  0.83887168    -0.13900
C321        C  0.55606264  0.01337723  0.80099505     0.16500
C322        C  0.56123946  0.98364336  0.83606682     0.02800
C323        C  0.55623152  0.47687245  0.89164178    -0.12400
C324        C  0.63695406  0.01226351  0.91672545    -0.03400
C325        C  0.60781608  0.04162826  0.89624151     0.02000
C326        C  0.55760290  0.01498764  0.72582138     0.08900
N327        N  0.51586256  0.95570449  0.82229760     0.65200
H328        H  0.56332786  0.45164437  0.90512132     0.18200
N329        N  0.60577958  0.06959736  0.93883639     0.75700
H330        H  0.54670085  0.06497324  0.82569428     0.09700
C331        C  0.59664927  0.04030662  0.69289293     0.03400
C332        C  0.62103895  0.03476424  0.62776257    -0.05300
C333        C  0.57942117  0.01490485  0.58497775    -0.23700
C334        C  0.53624970  0.99043888  0.61572275     0.12600
C335        C  0.52997762  0.98951529  0.68512102    -0.12900
N336        N  0.59023693  0.07407402  0.71357288     0.64300
H337        H  0.65233708  0.05442900  0.60610177     0.12100
N338        N  0.49883237  0.96597442  0.57810020     0.60900
H339        H  0.49925298  0.96958477  0.70541156     0.08300
O340        O  0.65335616  0.09163426  0.93336103    -0.40500
O341        O  0.54648542  0.07666145  0.96537527    -0.39700
O342        O  0.46798375  0.43564423  0.79095306    -0.39700
O343        O  0.45052643  0.96011298  0.81226153    -0.37400
O344        O  0.53016487  0.93983943  0.56241260    -0.38300
O345        O  0.36160815  0.49761906  0.58794873    -0.34500
O346        O  0.63969289  0.09432042  0.69997736    -0.35900
O347        O  0.52835728  0.08516352  0.72273538    -0.40200
C348        C  0.82095582  0.32632783  0.94671448    -0.13900
C349        C  0.84370042  0.33895045  0.00764499     0.16500
C350        C  0.91372453  0.35246738  0.00976239     0.02800
C351        C  0.94684341  0.36191126  0.95050039    -0.12400
C352        C  0.90485169  0.36339604  0.89382546    -0.03400
C353        C  0.84868482  0.33985581  0.88869868     0.02000
C354        C  0.78927967  0.34386252  0.06140260     0.08900
N355        N  0.94971098  0.35888028  0.07023791     0.65200
H356        H  0.99679863  0.37570566  0.95298841     0.18200
N357        N  0.81350738  0.33234430  0.82809278     0.75700
H358        H  0.77522677  0.30982640  0.94438341     0.09700
C359        C  0.72129580  0.35724265  0.04859829     0.03400
C360        C  0.66957404  0.35911054  0.09842541    -0.05300
C361        C  0.67930880  0.34367782  0.15777037    -0.23700
C362        C  0.75062396  0.33760117  0.17586018     0.12600
C363        C  0.80442477  0.33647737  0.12681939    -0.12900
N364        N  0.69916262  0.36592576  0.98444543     0.64300
H365        H  0.61636301  0.36646327  0.08563073     0.12100
N366        N  0.77016110  0.33520157  0.24348465     0.60900
H367        H  0.85714267  0.32893101  0.13993909     0.08300
O368        O  0.76144805  0.34932644  0.81213396    -0.40500
O369        O  0.81708976  0.30353924  0.80484429    -0.39700
O370        O  0.99697098  0.33945733  0.08762966    -0.39700
O371        O  0.94807206  0.38714348  0.09620265    -0.37400
O372        O  0.80962160  0.31232321  0.26065586    -0.38300
O373        O  0.76331781  0.35989192  0.28129725    -0.34500
O374        O  0.67361617  0.34348853  0.94783906    -0.35900
O375        O  0.67566243  0.39429238  0.97798235    -0.40200
C376        C  0.97757055  0.07746021  0.67220990    -0.13900
C377        C  0.94604343  0.10851565  0.67453224     0.16500
C378        C  0.98784074  0.13552099  0.69644980     0.02800
C379        C  0.06083355  0.13151295  0.70628981    -0.12400
C380        C  0.09403262  0.10271934  0.68236670    -0.03400
C381        C  0.05118926  0.07430063  0.67633646     0.02000
C382        C  0.86774594  0.11030269  0.66566127     0.08900
N383        N  0.95977824  0.16779382  0.69975662     0.65200
H384        H  0.09294773  0.15342593  0.71551905     0.18200
N385        N  0.08106986  0.04238975  0.67502693     0.75700
H386        H  0.94508023  0.05548264  0.66618653     0.09700
C387        C  0.83512817  0.08673995  0.62334929     0.03400
C388        C  0.79078971  0.06287907  0.65217605    -0.05300
C389        C  0.74548343  0.56534166  0.70412703    -0.23700
C390        C  0.78252698  0.09648060  0.75066597     0.12600
C391        C  0.82904002  0.11947846  0.72242783    -0.12900
N392        N  0.86052102  0.08188562  0.55708146     0.64300
H393        H  0.78082843  0.04005109  0.62548329     0.12100
N394        N  0.72773597  0.59176850  0.81391266     0.60900
H395        H  0.84570141  0.14038543  0.75217704     0.08300
O396        O  0.06602710  0.02239000  0.62895871    -0.40500
O397        O  0.11257774  0.03237526  0.72493682    -0.39700
O398        O  0.94020958  0.67178175  0.78566492    -0.39700
O399        O  0.93757694  0.68755173  0.68395815    -0.37400
O400        O  0.76255390  0.58007073  0.86011755    -0.38300
O401        O  0.67863129  0.61154199  0.82776909    -0.34500
O402        O  0.90712844  0.06074109  0.54420105    -0.35900
O403        O  0.82484914  0.09289577  0.51065295    -0.40200
C404        C  0.73855948  0.98365158  0.21132894    -0.13900
C405        C  0.75014634  0.01700654  0.22354872     0.16500
C406        C  0.82374645  0.02290622  0.23160187     0.02800
C407        C  0.86853461  0.01060403  0.18005414    -0.12400
C408        C  0.83799130  0.98836299  0.13411965    -0.03400
C409        C  0.75847803  0.45858867  0.09248094     0.02000
C410        C  0.71684480  0.03761296  0.17117474     0.08900
N411        N  0.84876793  0.04554332  0.28108296     0.65200
H412        H  0.92331011  0.01815234  0.17373373     0.18200
N413        N  0.69303871  0.44034521  0.09104681     0.75700
H414        H  0.69158142  0.97097970  0.23026592     0.09700
C415        C  0.65325925  0.02750320  0.13772562     0.03400
C416        C  0.63332057  0.04484582  0.08175130    -0.05300
C417        C  0.65775148  0.07756301  0.07818451    -0.23700
C418        C  0.73052615  0.08029254  0.08895753     0.12600
C419        C  0.75755472  0.06323009  0.14143616    -0.12900
N420        N  0.60359604  0.00382176  0.16458855     0.64300
H421        H  0.58277250  0.03828416  0.05960877     0.12100
N422        N  0.77417718  0.10251642  0.05237198     0.60900
H423        H  0.81011696  0.06982164  0.15719596     0.08300
O424        O  0.67355228  0.42584077  0.14282362    -0.40500
O425        O  0.64592217  0.44859151  0.05136627    -0.39700
O426        O  0.83793308  0.07573198  0.27553648    -0.39700
O427        O  0.86319763  0.03484486  0.33705507    -0.37400
O428        O  0.79831277  0.12836814  0.07959029    -0.38300
O429        O  0.80155804  0.09249674  0.99865444    -0.34500
O430        O  0.58540711  0.00599530  0.22476630    -0.35900
O431        O  0.56668503  0.98582381  0.12643736    -0.40200
C432        C  0.04074189  0.35896478  0.56533065    -0.13900
C433        C  0.97901116  0.36147261  0.52795415     0.16500
C434        C  0.96984225  0.34260152  0.47090716     0.02800
C435        C  0.02186507  0.32085551  0.45211142    -0.12400
C436        C  0.08228291  0.31573504  0.49138083    -0.03400
C437        C  0.09353546  0.33677324  0.54660426     0.02000
C438        C  0.92681572  0.38570448  0.54666634     0.08900
N439        N  0.90862461  0.34580194  0.43067158     0.65200
H440        H  0.01514063  0.30919163  0.40428437     0.18200
N441        N  0.16072778  0.33871791  0.57896144     0.75700
H442        H  0.04910232  0.37523518  0.60748711     0.09700
C443        C  0.87678552  0.37947076  0.59736572     0.03400
C444        C  0.84176582  0.40596099  0.62615174    -0.05300
C445        C  0.85540986  0.43799880  0.60453401    -0.23700
C446        C  0.89719056  0.44299524  0.54730959     0.12600
C447        C  0.93371437  0.41672742  0.51916836    -0.12900
N448        N  0.86444064  0.34707132  0.62256132     0.64300
H449        H  0.80807038  0.40165485  0.66921481     0.12100
N450        N  0.90593643  0.47464784  0.51952796     0.60900
H451        H  0.97069130  0.42086120  0.47830216     0.08300
O452        O  0.16573673  0.32816554  0.63664607    -0.40500
O453        O  0.20907612  0.35764837  0.55681101    -0.39700
O454        O  0.91372952  0.36243797  0.37904163    -0.39700
O455        O  0.85604604  0.32638163  0.43821835    -0.37400
O456        O  0.96674346  0.48837645  0.51939450    -0.38300
O457        O  0.85942104  0.48443774  0.48077052    -0.34500
O458        O  0.84175174  0.34336067  0.68093328    -0.35900
O459        O  0.86867981  0.32221433  0.58483077    -0.40200
C460        C  0.05279350  0.10199271  0.05523480    -0.13900
C461        C  0.10897075  0.09765277  0.00884231     0.16500
C462        C  0.14811580  0.06801158  0.01378029     0.02800
C463        C  0.14039791  0.04922773  0.07166525    -0.12400
C464        C  0.10021486  0.06180253  0.12557973    -0.03400
C465        C  0.04253773  0.08074408  0.10709422     0.02000
C466        C  0.11922917  0.12246668  0.95445513     0.08900
N467        N  0.20327705  0.05947789  0.96738274     0.65200
H468        H  0.18012880  0.03112867  0.08085405     0.18200
N469        N  0.97472124  0.07961395  0.14054235     0.75700
H470        H  0.01447530  0.12116539  0.05126039     0.09700
C471        C  0.15174888  0.54701105  0.87300315     0.03400
C472        C  0.09672289  0.53266052  0.83602324    -0.05300
C473        C  0.03003141  0.54772858  0.83668272    -0.23700
C474        C  0.00423311  0.12342512  0.90848107     0.12600
C475        C  0.05778773  0.14057375  0.94351331    -0.12900
N476        N  0.22474363  0.53978277  0.85781322     0.64300
H477        H  0.10483793  0.50976585  0.80939625     0.12100
N478        N  0.93165169  0.13284082  0.91553602     0.60900
H479        H  0.04346718  0.16059365  0.97669850     0.08300
O480        O  0.91974110  0.08704416  0.10979325    -0.40500
O481        O  0.96827713  0.06929843  0.19849090    -0.39700
O482        O  0.26761372  0.06200855  0.98431299    -0.39700
O483        O  0.18775929  0.04283548  0.91636089    -0.37400
O484        O  0.90566786  0.13760737  0.97261521    -0.38300
O485        O  0.90219420  0.14563714  0.86732689    -0.34500
O486        O  0.24246626  0.51107994  0.84166950    -0.35900
O487        O  0.26973053  0.56293239  0.85112915    -0.40200
C488        C  0.14035454  0.57486879  0.18272766     0.87000
C489        C  0.19885504  0.59525062  0.14693255    -0.53300
C490        C  0.24524462  0.61171756  0.18466563     0.09900
C491        C  0.22531353  0.60743892  0.26019856     0.20900
C492        C  0.18148402  0.55208182  0.22882623    -0.54000
C493        C  0.22919401  0.56757587  0.26953796     0.10000
C494        C  0.10028264  0.59926770  0.22927318    -0.53500
C495        C  0.14220676  0.61915655  0.26687804     0.10600
H496        H  0.20348355  0.59682736  0.09358406     0.15100
H497        H  0.26116406  0.62184031  0.29315455     0.00800
H498        H  0.17645373  0.52560169  0.22652056     0.15400
H499        H  0.04320664  0.60227166  0.23039774     0.15200
C500        C  0.11275452  0.65381867  0.29672369     0.30500
C501        C  0.11588586  0.71696315  0.35352890     0.30500
C502        C  0.14254126  0.68185660  0.25434699    -0.05700
C503        C  0.03368365  0.66845062  0.31574049    -0.06500
C504        C  0.14819482  0.65855575  0.36242337    -0.06400
C505        C  0.14293955  0.71337968  0.28246156    -0.05700
C506        C  0.03547530  0.70073961  0.34605958    -0.06500
C507        C  0.15081109  0.69005944  0.39021781    -0.06400
C508        C  0.13382454  0.73441627  0.23078880    -0.31700
N509        N  0.13681555  0.71818503  0.17218411     0.14800
C510        C  0.13594055  0.68599606  0.18714555    -0.31800
H511        H  0.12580920  0.66643897  0.15168626     0.16700
C512        C  0.96200403  0.70829010  0.36057427    -0.30700
N513        N  0.91488177  0.68350612  0.34012303     0.13500
C514        C  0.95895343  0.65954632  0.31262630    -0.30700
C515        C  0.14622343  0.68657287  0.45739012    -0.31000
N516        N  0.14272589  0.65484751  0.47122235     0.14000
H517        H  0.13265014  0.70559013  0.49260234     0.16600
C518        C  0.13962990  0.63780934  0.41430362    -0.31000
H519        H  0.11435366  0.61410447  0.41069384     0.16600
H520        H  0.93879723  0.63663930  0.29196856     0.16600
H521        H  0.12085950  0.76001653  0.23537030     0.16700
H522        H  0.94459957  0.73088930  0.38374172     0.16600
C523        C  0.13687154  0.79434799  0.47159735     0.87000
C524        C  0.17817277  0.77143402  0.51669398    -0.53300
C525        C  0.22912265  0.75285932  0.48599257     0.09900
C526        C  0.22983432  0.75872242  0.40917293     0.20900
C527        C  0.19363370  0.81498070  0.43490297    -0.54000
C528        C  0.24532177  0.79805069  0.40357656     0.10000
C529        C  0.10217401  0.77042484  0.42086876    -0.53500
C530        C  0.14716195  0.75026689  0.38788049     0.10600
H531        H  0.16677911  0.76935086  0.56900419     0.15100
H532        H  0.26982783  0.74354269  0.38241728     0.00800
H533        H  0.19458340  0.84156163  0.43675211     0.15400
H534        H  0.04509138  0.76608430  0.41854499     0.15200
C535        C  0.28785078  0.54764061  0.31073391     0.30500
C536        C  0.40128135  0.53266488  0.38905315     0.30500
C537        C  0.28173864  0.55802226  0.38355742    -0.05700
C538        C  0.30554113  0.50678595  0.31911352    -0.06500
C539        C  0.36337652  0.56193098  0.29126356    -0.06400
C540        C  0.33775185  0.55043171  0.42234596    -0.05700
C541        C  0.36454536  0.50128859  0.36122512    -0.06500
C542        C  0.41920503  0.55044545  0.32506603    -0.06400
C543        C  0.31709743  0.55765062  0.48717892    -0.31700
N544        N  0.25266442  0.57206675  0.48897913     0.14800
C545        C  0.22917523  0.57031991  0.42570520    -0.31800
H546        H  0.17568087  0.57413402  0.41141031     0.16700
C547        C  0.39077482  0.96932489  0.36650145    -0.30700
N548        N  0.34069835  0.94941895  0.33702252     0.13500
C549        C  0.29445201  0.97154272  0.30765210    -0.30700
C550        C  0.48172885  0.56180161  0.29529248    -0.31000
N551        N  0.46749591  0.58617742  0.25310391     0.14000
H552        H  0.53341982  0.55213381  0.30466673     0.16600
C553        C  0.39465076  0.58772501  0.25560993    -0.31000
H554        H  0.36671145  0.60874321  0.24285486     0.16600
H555        H  0.24900977  0.96354567  0.27900554     0.16600
H556        H  0.34590661  0.55150045  0.53020955     0.16700
H557        H  0.43555046  0.96001873  0.39252800     0.16600
C558        C  0.63273496  0.60756917  0.14376251     0.87000
C559        C  0.65812631  0.63438660  0.19075263    -0.53300
C560        C  0.60839817  0.64893103  0.22703556     0.09900
C561        C  0.52961992  0.64094817  0.19695947     0.20900
C562        C  0.57507409  0.58669716  0.18040416    -0.54000
C563        C  0.52040127  0.60330642  0.20967043     0.10000
C564        C  0.58935152  0.62606897  0.09056047    -0.53500
C565        C  0.53248640  0.64419155  0.11528817     0.10600
H566        H  0.71387196  0.63784293  0.20188943     0.15100
H567        H  0.48678151  0.65535105  0.22146682     0.00800
H568        H  0.57891984  0.56034308  0.18442623     0.15400
H569        H  0.60184181  0.62467748  0.03835046     0.15200
C570        C  0.13458899  0.60802058  0.62893265     0.87000
C571        C  0.10699355  0.63009244  0.57438793    -0.53300
C572        C  0.15787770  0.64122733  0.53299047     0.09900
C573        C  0.23148334  0.62970737  0.54744362     0.20900
C574        C  0.17524045  0.58041480  0.58972466    -0.54000
C575        C  0.22319905  0.59195914  0.54375016     0.10000
C576        C  0.19449227  0.62834171  0.66416533    -0.53500
C577        C  0.24533826  0.64045698  0.62200386     0.10600
H578        H  0.05090853  0.63465475  0.56631475     0.15100
H579        H  0.27078666  0.63926166  0.51056464     0.00800
H580        H  0.16668076  0.55440212  0.59506307     0.15400
H581        H  0.19569835  0.63309034  0.71695965     0.15200
C582        C  0.64018185  0.69049492  0.42383388     0.30500
C583        C  0.63281628  0.66221599  0.29812941     0.30500
C584        C  0.60028792  0.70752949  0.37192836    -0.05700
C585        C  0.71751025  0.68815588  0.38594367    -0.06500
C586        C  0.61577707  0.65433705  0.41938897    -0.06400
C587        C  0.59043745  0.69219034  0.31184139    -0.05700
C588        C  0.71398178  0.67332067  0.32126591    -0.06500
C589        C  0.60955072  0.64066240  0.35630583    -0.06400
C590        C  0.57530702  0.71571473  0.26853535    -0.31700
N591        N  0.58090196  0.74485373  0.29913835     0.14800
C592        C  0.60157332  0.74037383  0.36071170    -0.31800
H593        H  0.62464143  0.75903169  0.39280109     0.16700
C594        C  0.78756751  0.67046572  0.29958059    -0.30700
N595        N  0.83565291  0.68297054  0.34541452     0.13500
C596        C  0.79247035  0.69384192  0.39772278    -0.30700
C597        C  0.60891840  0.60742308  0.36398624    -0.31000
N598        N  0.61384985  0.59922752  0.42827673     0.14000
H599        H  0.60356205  0.59053793  0.32419323     0.16600
C600        C  0.62360041  0.62814463  0.46157780    -0.31000
H601        H  0.63120597  0.63023419  0.51429488     0.17300
H602        H  0.81347717  0.70417801  0.44304975     0.16600
H603        H  0.57331318  0.71206004  0.21805621     0.16700
H604        H  0.80506082  0.65958000  0.25328041     0.16600
C605        C  0.62205835  0.82000866  0.20381312     0.87000
C606        C  0.59062124  0.79996587  0.14369430    -0.53300
C607        C  0.53286248  0.78083979  0.15865300     0.09900
C608        C  0.51112928  0.78394223  0.23177694     0.20900
C609        C  0.55952263  0.84004802  0.23503549    -0.54000
C610        C  0.50128617  0.82105091  0.25168725     0.10000
C611        C  0.63617550  0.79302439  0.25289175    -0.53500
C612        C  0.57764445  0.77471960  0.26658909     0.10600
H613        H  0.61624916  0.79843580  0.09529815     0.15100
H614        H  0.46620225  0.76704423  0.24501741     0.00800
H615        H  0.56371816  0.86593275  0.24766002     0.15400
H616        H  0.68768597  0.78536647  0.26879520     0.15200
C617        C  0.52639478  0.53315083  0.53872947     0.87000
C618        C  0.48158331  0.56178152  0.56276612    -0.53300
C619        C  0.46680575  0.58332549  0.51725916     0.09900
C620        C  0.49129434  0.57374886  0.44832243     0.20900
C621        C  0.48363787  0.51651388  0.48225236    -0.54000
C622        C  0.46371230  0.53777706  0.43541406     0.10000
C623        C  0.59192251  0.55075948  0.50284246    -0.53500
C624        C  0.57152940  0.57232394  0.45507768     0.10600
H625        H  0.46571862  0.56623341  0.61399406     0.15100
H626        H  0.47416458  0.59210452  0.41265136     0.00800
H627        H  0.46621070  0.49115214  0.48147195     0.15400
H628        H  0.64698152  0.54873845  0.51734578     0.15200
C629        C  0.31271006  0.81651763  0.37036438     0.30500
C630        C  0.43644534  0.82959572  0.29733822     0.30500
C631        C  0.31631811  0.80351916  0.29966614    -0.05700
C632        C  0.33108814  0.85620782  0.35730225    -0.06500
C633        C  0.38394294  0.80445430  0.39930243    -0.06400
C634        C  0.37499790  0.81226599  0.26303561    -0.05700
C635        C  0.39611353  0.86191704  0.32040713    -0.06500
C636        C  0.44480106  0.81089051  0.36287457    -0.06400
C637        C  0.36136628  0.80471270  0.19824090    -0.31700
N638        N  0.29977253  0.78733024  0.19554310     0.14800
C639        C  0.27065901  0.78735760  0.25728565    -0.31800
H640        H  0.21909431  0.77827614  0.27097277     0.16700
C641        C  0.40222467  0.89599839  0.30794984    -0.30700
N642        N  0.34485281  0.91316104  0.33325987     0.13500
C643        C  0.30197895  0.88904573  0.36380557    -0.30700
C644        C  0.50110210  0.79659913  0.39578899    -0.31000
N645        N  0.47698982  0.77871007  0.44837192     0.14000
H646        H  0.55647205  0.80073786  0.38321552     0.16600
C647        C  0.40621173  0.78712678  0.45406613    -0.31000
H648        H  0.37327212  0.78398500  0.49747082     0.16600
H649        H  0.25247361  0.89451487  0.38953569     0.16600
H650        H  0.39411315  0.81198196  0.15659030     0.16700
H651        H  0.44621819  0.90735913  0.28110074     0.16600
C652        C  0.21035966  0.77109527  0.03201413     0.87000
C653        C  0.15223195  0.74998651  0.06877014    -0.53300
C654        C  0.17902852  0.73169857  0.11844961     0.09900
C655        C  0.25997014  0.73587430  0.12569516     0.20900
C656        C  0.24750978  0.79084269  0.08721662    -0.54000
C657        C  0.27075889  0.77270198  0.13675788     0.10000
C658        C  0.26617045  0.74574852  0.00773268    -0.53500
C659        C  0.29309807  0.72726965  0.05630485     0.10600
H660        H  0.09555775  0.75097530  0.05975833     0.15100
H661        H  0.28144863  0.72202024  0.16714860     0.00800
H662        H  0.25221817  0.81740051  0.08862081     0.15400
H663        H  0.28437961  0.74337863  0.95747499     0.15200
C664        C  0.61262692  0.74887611  0.57724961     0.87000
C665        C  0.65006957  0.72497703  0.52992640    -0.53300
C666        C  0.60712631  0.70897805  0.48740903     0.09900
C667        C  0.52349186  0.71954646  0.49962060     0.20900
C668        C  0.57009855  0.77271742  0.53379964    -0.54000
C669        C  0.52145571  0.75850151  0.49274400     0.10000
C670        C  0.55343195  0.72968439  0.61467258    -0.53500
C671        C  0.50469484  0.71423301  0.57650040     0.10600
H672        H  0.70769418  0.72271409  0.52725568     0.15100
H673        H  0.48625975  0.70647897  0.46584558     0.00800
H674        H  0.57663293  0.79915739  0.53671045     0.15400
H675        H  0.54580959  0.73091104  0.66752425     0.15200
C676        C  0.47395678  0.66391240  0.07010335     0.30500
C677        C  0.35669279  0.70383592  0.04902588     0.30500
C678        C  0.48013971  0.70090606  0.09075510    -0.05700
C679        C  0.45121566  0.66911701  0.99011276    -0.06500
C680        C  0.39927160  0.65335312  0.09924958    -0.06400
C681        C  0.42115886  0.71984138  0.08093703    -0.05700
C682        C  0.39007456  0.68944339  0.98332830    -0.06500
C683        C  0.34327072  0.67363596  0.08973406    -0.06400
C684        C  0.43858368  0.75191541  0.09557507    -0.31700
N685        N  0.50639685  0.75418125  0.11619477     0.14800
C686        C  0.53395640  0.72352087  0.10815111    -0.31800
H687        H  0.58954521  0.71787015  0.11452488     0.16700
C688        C  0.37375528  0.69269357  0.91625990    -0.30700
N689        N  0.42146424  0.67726055  0.87567048     0.13500
C690        C  0.46825618  0.66243234  0.91965649    -0.30700
C691        C  0.28352626  0.66033228  0.11980578    -0.31000
N692        N  0.29958488  0.63313276  0.15276484     0.14000
H693        H  0.23111258  0.66835254  0.11103010     0.16600
C694        C  0.36860733  0.62674353  0.13238578    -0.31000
H695        H  0.39439851  0.60358364  0.13670591     0.16600
H696        H  0.51206033  0.64740185  0.90281555     0.16600
H697        H  0.40491073  0.77232450  0.08793096     0.16700
H698        H  0.32871385  0.70525015  0.89748380     0.16600
C699        C  0.43622307  0.69690691  0.60836728     0.30500
C700        C  0.31161616  0.66257976  0.63876503     0.30500
C701        C  0.42846814  0.66324514  0.57875527    -0.05700
C702        C  0.42156539  0.68921233  0.68865755    -0.06500
C703        C  0.36541178  0.71194985  0.58507003    -0.06400
C704        C  0.36957045  0.64586344  0.59836308    -0.05700
C705        C  0.35667132  0.67144561  0.70214941    -0.06500
C706        C  0.30319805  0.69648959  0.60670606    -0.06400
C707        C  0.37890293  0.61447010  0.57815504    -0.31700
N708        N  0.43532342  0.61328582  0.53663757     0.14800
C709        C  0.46770819  0.64313669  0.53823220    -0.31800
H710        H  0.51783336  0.64951644  0.51655474     0.16700
C711        C  0.35420984  0.66405538  0.77039491    -0.30700
N712        N  0.41423096  0.67537015  0.80289823     0.13500
C713        C  0.45447162  0.69110660  0.75340023    -0.30700
C714        C  0.24691952  0.71036247  0.57392655    -0.31000
N715        N  0.27190861  0.72984311  0.52443255     0.14000
H716        H  0.19128358  0.70528015  0.58487099     0.16600
C717        C  0.34435692  0.72742958  0.52755261    -0.31000
H718        H  0.37932670  0.73167200  0.48637055     0.16600
H719        H  0.50441169  0.70358045  0.76317706     0.16600
H720        H  0.34908398  0.59372353  0.59681203     0.16700
H721        H  0.31045949  0.65112761  0.79457096     0.16600
O722        O  0.96155814  0.05559181  0.93570501    -0.79600
O723        O  0.75487282  0.02690802  0.88964574    -0.79700
O724        O  0.85718246  0.04004721  0.78724952    -0.79700
O725        O  0.84598134  0.96336855  0.02807709    -0.79600
O726        O  0.75961556  0.01126337  0.76009336    -0.79700
O727        O  0.89258748  0.01378291  0.03902325    -0.79700
O728        O  0.74047680  0.98541068  0.95277044    -0.79600
O729        O  0.99188930  0.04286287  0.83089881    -0.79700
C730        C  0.98705064  0.06360789  0.87866702     1.10000
C731        C  0.71488776  0.01037266  0.92661429     1.09900
C732        C  0.79692586  0.03748103  0.75739030     1.10100
C733        C  0.86103724  0.98843449  0.06375941     1.09900
O734        O  0.97965961  0.96282319  0.99477023    -0.79600
O735        O  0.86714892  0.96809535  0.76959717    -0.79700
O736        O  0.00180778  0.97176770  0.83232541    -0.79700
O737        O  0.78041257  0.92480089  0.92706469    -0.79600
O738        O  0.75562417  0.95620537  0.84131079    -0.79700
O739        O  0.05207416  0.00228460  0.90766736    -0.79700
O740        O  0.92103963  0.93715045  0.91605723    -0.79600
O741        O  0.95036152  0.99893659  0.72164154    -0.79700
Co742      Co  0.96707301  0.00928145  0.96700771     1.51500
Co743      Co  0.81553290  0.99926819  0.83309362     1.51700
Co744      Co  0.92724633  0.00455194  0.81459344     1.51600
Co745      Co  0.83433291  0.96264957  0.93051317     1.51500
O746        O  0.88693079  0.99977126  0.90458600    -1.41600
C747        C  0.96200107  0.93623852  0.96464237     1.10000
C748        C  0.91097306  0.97307633  0.72141120     1.10100
C749        C  0.05428655  0.97760417  0.86935299     1.10000
C750        C  0.75361087  0.92833614  0.87050285     1.10000
C751        C  0.69258989  0.78486242  0.73019452    -0.13900
C752        C  0.71539331  0.81504462  0.70543734     0.16500
C753        C  0.72561929  0.81843303  0.63637943     0.02800
C754        C  0.70236187  0.79341946  0.59451490    -0.12400
C755        C  0.66648312  0.76612612  0.62023393    -0.03400
C756        C  0.67344149  0.75944297  0.68765869     0.02000
C757        C  0.72033430  0.84302745  0.75140646     0.08900
N758        N  0.75461194  0.84751130  0.60717487     0.65200
H759        H  0.70482842  0.79711308  0.54172815     0.18200
N760        N  0.66650629  0.72699461  0.71268446     0.75700
H761        H  0.68658612  0.78110462  0.78248921     0.09700
C762        C  0.75499339  0.84147479  0.81220449     0.03400
C763        C  0.75955000  0.86940484  0.85184357    -0.05300
C764        C  0.73079728  0.89910710  0.83285669    -0.23700
C765        C  0.69528717  0.90030831  0.77198070     0.12600
C766        C  0.68635123  0.87169465  0.73479380    -0.12900
N767        N  0.78857781  0.81244747  0.83350109     0.64300
H768        H  0.79232359  0.86842067  0.89487899     0.12100
N769        N  0.67563586  0.93020625  0.74234645     0.60900
H770        H  0.65516732  0.87240306  0.69060994     0.08300
O771        O  0.63284702  0.72230120  0.76623590    -0.40500
O772        O  0.70911784  0.70550340  0.69162677    -0.39700
O773        O  0.81705163  0.84650330  0.58336468    -0.39700
O774        O  0.71232714  0.86745442  0.58295169    -0.37400
O775        O  0.72425453  0.94737798  0.71546464    -0.38300
O776        O  0.61335992  0.93213710  0.72063070    -0.34500
O777        O  0.85329526  0.80788001  0.81880375    -0.35900
O778        O  0.75990558  0.79620747  0.87952167    -0.40200
C779        C  0.17841495  0.91717586  0.94369007    -0.13900
C780        C  0.17510632  0.89204503  0.89569626     0.16500
C781        C  0.15235328  0.89974419  0.83220392     0.02800
C782        C  0.11949897  0.92975987  0.82217588    -0.12400
C783        C  0.11151472  0.95291333  0.87397011    -0.03400
C784        C  0.14816623  0.94762420  0.93327987     0.02000
C785        C  0.17801660  0.85774708  0.91867045     0.08900
N786        N  0.15893617  0.87699291  0.77827161     0.65200
H787        H  0.09551139  0.93391157  0.77495045     0.18200
N788        N  0.15309582  0.97184493  0.98488190     0.75700
H789        H  0.19945434  0.91220386  0.99181974     0.09700
C790        C  0.22928477  0.83504334  0.89733485     0.03400
C791        C  0.23266256  0.80469998  0.92840795    -0.05300
C792        C  0.18632671  0.79618728  0.98181829    -0.23700
C793        C  0.13233289  0.81874482  0.99974376     0.12600
C794        C  0.12885528  0.84863096  0.96805805    -0.12900
N795        N  0.28330996  0.84351507  0.84967247     0.64300
H796        H  0.27700925  0.78965025  0.91396087     0.12100
N797        N  0.08554048  0.81376013  0.05522606     0.60900
H798        H  0.08949740  0.86593941  0.98534875     0.08300
O799        O  0.11360513  0.96883934  0.03550994    -0.40500
O800        O  0.21156154  0.98734417  0.99063944    -0.39700
O801        O  0.11995020  0.85151905  0.77614166    -0.39700
O802        O  0.19836841  0.88413957  0.72932367    -0.37400
O803        O  0.10132269  0.82673293  0.11019200    -0.38300
O804        O  0.02174022  0.80485270  0.04531251    -0.34500
O805        O  0.34183710  0.85555715  0.86940093    -0.35900
O806        O  0.28075064  0.83062836  0.79267316    -0.40200
C807        C  0.53660814  0.54074406  0.85508204    -0.13900
C808        C  0.50649086  0.51534734  0.81595636     0.16500
C809        C  0.50564740  0.48383646  0.84403537     0.02800
C810        C  0.60441125  0.98330142  0.89241131    -0.12400
C811        C  0.60623323  0.50115649  0.91062731    -0.03400
C812        C  0.58540620  0.53362140  0.90391772     0.02000
C813        C  0.50488632  0.51901989  0.74211961     0.08900
N814        N  0.45235562  0.45962753  0.82814578     0.65200
H815        H  0.61726017  0.96013113  0.91379279     0.18200
N816        N  0.60932146  0.55838181  0.94953675     0.75700
H817        H  0.52458213  0.56591795  0.84697540     0.09700
C818        C  0.55442546  0.54025721  0.71039607     0.03400
C819        C  0.58084239  0.53127064  0.64752393    -0.05300
C820        C  0.53529736  0.51460783  0.60309551    -0.23700
C821        C  0.47478520  0.49777536  0.63232387     0.12600
C822        C  0.46451415  0.49796305  0.70132126    -0.12900
N823        N  0.55587012  0.57465518  0.72778940     0.64300
H824        H  0.62209414  0.54695078  0.62721283     0.12100
N825        N  0.41957278  0.48287167  0.59358854     0.60900
H826        H  0.42043231  0.48383011  0.72177885     0.08300
O827        O  0.60472642  0.58823184  0.93588700    -0.40500
O828        O  0.61807141  0.55064314  0.00863938    -0.39700
O829        O  0.53497020  0.92753567  0.83824686    -0.39700
O830        O  0.39659662  0.45790697  0.86384657    -0.37400
O831        O  0.42076798  0.45249864  0.58133319    -0.38300
O832        O  0.43155556  0.96638918  0.57714339    -0.34500
O833        O  0.60602730  0.59287382  0.70679783    -0.35900
O834        O  0.49802555  0.58807224  0.74463908    -0.40200
C835        C  0.89278296  0.85718818  0.01025126    -0.13900
C836        C  0.88053657  0.86625371  0.07654633     0.16500
C837        C  0.92892007  0.88902959  0.10641529     0.02800
C838        C  0.97564932  0.90721361  0.06657088    -0.12400
C839        C  0.97041910  0.90480379  0.99788290    -0.03400
C840        C  0.93929311  0.87593267  0.97081659     0.02000
C841        C  0.81420240  0.85489072  0.11119252     0.08900
N842        N  0.92669029  0.89676979  0.17550508     0.65200
H843        H  0.00528586  0.92738620  0.08924382     0.18200
N844        N  0.95430186  0.86550812  0.90428431     0.75700
H845        H  0.86335822  0.83684065  0.98818377     0.09700
C846        C  0.74569549  0.85913251  0.08428349     0.03400
C847        C  0.68471814  0.85419251  0.12267026    -0.05300
C848        C  0.68804311  0.83990724  0.18396080    -0.23700
C849        C  0.75587780  0.83777646  0.21360074     0.12600
C850        C  0.81778478  0.84419569  0.17615464    -0.12900
N851        N  0.73431943  0.86541729  0.01677573     0.64300
H852        H  0.63328006  0.85749437  0.10032488     0.12100
N853        N  0.76331810  0.83308837  0.28282468     0.60900
H854        H  0.86895416  0.84118440  0.19868625     0.08300
O855        O  0.92549209  0.87927161  0.85690220    -0.40500
O856        O  0.98553100  0.83880159  0.89373132    -0.39700
O857        O  0.97032112  0.88326034  0.21238457    -0.39700
O858        O  0.89812301  0.92294717  0.19531844    -0.37400
O859        O  0.80418764  0.81124893  0.30234963    -0.38300
O860        O  0.74540634  0.85578847  0.32247314    -0.34500
O861        O  0.72519040  0.84054532  0.97992382    -0.35900
O862        O  0.70022155  0.89066874  0.00375709    -0.40200
C863        C  0.94710457  0.57983653  0.65396793    -0.13900
C864        C  0.91929407  0.61034030  0.67283719     0.16500
C865        C  0.96573349  0.63353219  0.70261278     0.02800
C866        C  0.03893507  0.62718758  0.70518716    -0.12400
C867        C  0.06848857  0.59988520  0.67100833    -0.03400
C868        C  0.02016771  0.57472524  0.65051557     0.02000
C869        C  0.84057934  0.61439060  0.66941255     0.08900
N870        N  0.94105039  0.66479407  0.72478253     0.65200
H871        H  0.07347787  0.64694242  0.72262751     0.18200
N872        N  0.04302793  0.54559330  0.61741554     0.75700
H873        H  0.91209650  0.55996990  0.63781841     0.09700
C874        C  0.80406754  0.59693414  0.61883499     0.03400
C875        C  0.75998975  0.57049102  0.63719829    -0.05300
C876        C  0.77538457  0.06538493  0.71979553    -0.23700
C877        C  0.75776631  0.59168648  0.74878680     0.12600
C878        C  0.80507704  0.61689624  0.73051472    -0.12900
N879        N  0.82572566  0.59994080  0.55124936     0.64300
H880        H  0.74762092  0.55152617  0.60083203     0.12100
N881        N  0.75442349  0.10263801  0.81543164     0.60900
H882        H  0.82418725  0.63366492  0.76848881     0.08300
O883        O  0.04053245  0.54383094  0.55529485    -0.40500
O884        O  0.04836723  0.51969630  0.64957873    -0.39700
O885        O  0.95991036  0.18364765  0.75379931    -0.39700
O886        O  0.95071391  0.18282838  0.64694928    -0.37400
O887        O  0.78830436  0.09318425  0.86435636    -0.38300
O888        O  0.70853589  0.12457364  0.82376424    -0.34500
O889        O  0.86276999  0.57792900  0.52375173    -0.35900
O890        O  0.79293076  0.61942916  0.51576247    -0.40200
C891        C  0.75749896  0.49160743  0.10940331    -0.13900
C892        C  0.82176463  0.50972175  0.10969214     0.16500
C893        C  0.88646255  0.49290011  0.10959766     0.02800
C894        C  0.88487013  0.45925387  0.09460216    -0.12400
C895        C  0.82236966  0.44621528  0.06624117    -0.03400
C896        C  0.77642342  0.97077182  0.15694143     0.02000
C897        C  0.81567849  0.54513025  0.11511191     0.08900
N898        N  0.95326741  0.50986418  0.11097560     0.65200
H899        H  0.93538540  0.44790952  0.08303950     0.18200
N900        N  0.74967293  0.94178830  0.12619310     0.75700
H901        H  0.70691855  0.50335927  0.11912844     0.09700
C902        C  0.79021608  0.56215046  0.06094965     0.03400
C903        C  0.73335060  0.58386840  0.06949366    -0.05300
C904        C  0.69969044  0.58711225  0.13146070    -0.23700
C905        C  0.73521312  0.57341641  0.18664190     0.12600
C906        C  0.79617998  0.55533414  0.17764554    -0.12900
N907        N  0.81802733  0.55532829  0.99658727     0.64300
H908        H  0.71351509  0.59645802  0.02745003     0.12100
N909        N  0.70861127  0.57539663  0.25277119     0.60900
H910        H  0.81774475  0.54315296  0.21976088     0.08300
O911        O  0.74647417  0.91668985  0.16113447    -0.40500
O912        O  0.70467596  0.94459892  0.08135814    -0.39700
O913        O  0.99140254  0.50750471  0.16116734    -0.39700
O914        O  0.98241373  0.51711098  0.05652399    -0.37400
O915        O  0.67854965  0.55002784  0.27568944    -0.38300
O916        O  0.74080703  0.59456874  0.29228851    -0.34500
O917        O  0.78801909  0.53397370  0.96051753    -0.35900
O918        O  0.86880970  0.57257986  0.97369611    -0.40200
C919        C  0.05896712  0.85714359  0.59330640    -0.13900
C920        C  0.99493918  0.86461303  0.56340728     0.16500
C921        C  0.97740449  0.84961779  0.50263604     0.02800
C922        C  0.02242269  0.82601189  0.47538857    -0.12400
C923        C  0.08525909  0.81698475  0.50714641    -0.03400
C924        C  0.10482060  0.83432386  0.56545267     0.02000
C925        C  0.95275571  0.89025663  0.59605117     0.08900
N926        N  0.91669058  0.85887239  0.46611408     0.65200
H927        H  0.00945020  0.81639832  0.42696551     0.18200
N928        N  0.17328665  0.83131846  0.59440082     0.75700
H929        H  0.07531738  0.87043625  0.63750985     0.09700
C930        C  0.93104764  0.88650995  0.66234062     0.03400
C931        C  0.91508173  0.91405336  0.70046521    -0.05300
C932        C  0.92044392  0.94557164  0.67427315    -0.23700
C933        C  0.93439727  0.94897893  0.60627852     0.12600
C934        C  0.95157467  0.92125815  0.56783016    -0.12900
N935        N  0.93269552  0.85537582  0.69344030     0.64300
H936        H  0.90204706  0.91081037  0.75213820     0.12100
N937        N  0.92810845  0.97971834  0.57496612     0.60900
H938        H  0.96807601  0.92428907  0.51686096     0.08300
O939        O  0.17744376  0.81782895  0.64956087    -0.40500
O940        O  0.22397950  0.84976820  0.57520751    -0.39700
O941        O  0.92330555  0.88261349  0.42754638    -0.39700
O942        O  0.86780337  0.83781628  0.45562944    -0.37400
O943        O  0.97963390  0.99052979  0.54034943    -0.38300
O944        O  0.86649559  0.99035644  0.56558017    -0.34500
O945        O  0.98397854  0.84901497  0.72998610    -0.35900
O946        O  0.87651489  0.83809325  0.69762660    -0.40200
C947        C  0.06606334  0.58276588  0.02312965    -0.13900
C948        C  0.12001137  0.56560721  0.98819194     0.16500
C949        C  0.15279888  0.54003614  0.02248156     0.02800
C950        C  0.13698096  0.53541255  0.08974870    -0.12400
C951        C  0.09820073  0.55891148  0.12681823    -0.03400
C952        C  0.05415491  0.57944340  0.09038870     0.02000
C953        C  0.13411959  0.57314252  0.91598213     0.08900
N954        N  0.20837070  0.52093039  0.99334808     0.65200
H955        H  0.16851018  0.51784852  0.11496683     0.18200
N956        N  0.00146471  0.59978002  0.12094605     0.75700
H957        H  0.03265402  0.60009184  0.99963842     0.09700
C958        C  0.14670154  0.11024520  0.89453132     0.03400
C959        C  0.09776579  0.09372688  0.85345993    -0.05300
C960        C  0.02474063  0.09533692  0.87115049    -0.23700
C961        C  0.02552097  0.58063817  0.85872293     0.12600
C962        C  0.08593755  0.59483387  0.88879592    -0.12900
N963        N  0.21132364  0.12382514  0.86789094     0.64300
H964        H  0.11672942  0.07798455  0.81378417     0.12100
N965        N  0.96006750  0.59827266  0.85680091     0.60900
H966        H  0.08338533  0.61964399  0.90838280     0.08300
O967        O  0.01116748  0.63043699  0.12195260    -0.40500
O968        O  0.93910658  0.58838328  0.12921791    -0.39700
O969        O  0.27158494  0.53208695  0.99511627    -0.39700
O970        O  0.19825395  0.49047948  0.98595264    -0.37400
O971        O  0.91026261  0.58845359  0.82003143    -0.38300
O972        O  0.95074926  0.62325001  0.89339177    -0.34500
O973        O  0.20825754  0.15038634  0.83761000    -0.35900
O974        O  0.27022701  0.11545020  0.89063008    -0.40200
loop_ 
_geom_bond_atom_site_label_1 
_geom_bond_atom_site_label_2 
_geom_bond_distance 
_geom_bond_site_symmetry_2 
_ccdc_geom_bond_type 
C1            C2   1.541       .  S
C1            C7   1.552       .  S
C1            C5   1.556       .  S
C1          C464   1.537       .  S
C2            H9   1.076       .  S
C2            C3   1.333       .  D
C3            C4   1.581       .  S
C3          N205   1.483       .  S
C4            C8   1.619       .  S
C4            C6   1.653       .  S
C4           H10   1.110       .  S
C5           H11   1.085       .  S
C5            C6   1.371       .  D
C6           C48   1.639       .  S
C7           H12   1.074       .  S
C7            C8   1.343       .  D
C8           C13   1.595       .  S
C13          C15   1.532       .  S
C13          C17   1.503       .  S
C13          C16   1.632       .  S
C14          C43   1.597       .  S
C14          C18   1.517       .  S
C14          C20   1.503       .  S
C14          C19   1.643       .  S
C15          C23   1.385       .  A
C15          C18   1.396       .  A
C16          C27   1.438   1_455  A
C16          C19   1.436       .  A
C17          C31   1.367       .  A
C17          C20   1.384       .  A
C18          C21   1.380       .  A
C19          C25   1.442   1_455  A
C20          C28   1.374       .  A
C21          N22   1.346       .  A
C21          H34   1.079       .  S
N22         C167   1.442       .  S
N22          C23   1.353       .  A
C23          H24   1.081       .  S
C25          N26   1.394       .  A
C25          H35   1.081       .  S
N26          C27   1.391       .  A
N26         N108   1.484       .  S
C27          H33   1.082       .  S
C28          N29   1.335       .  A
C28          H30   1.076       .  S
N29          C85   1.417       .  S
N29          C31   1.337       .  A
C31          H32   1.067       .  S
C36          C37   1.560       .  S
C36          C42   1.538       .  S
C36          C40   1.533       .  S
C36         C436   1.514       .  S
C37          H44   1.084       .  S
C37          C38   1.379       .  D
C38          C39   1.590       .  S
C38         N228   1.500       .  S
C39          C43   1.635       .  S
C39          C41   1.629       .  S
C39          H45   1.110       .  S
C40          H46   1.086       .  S
C40          C41   1.343       .  D
C41         C142   1.597       .  S
C42          H47   1.085       .  S
C42          C43   1.331       .  D
C48          C50   1.557       .  S
C48          C52   1.553       .  S
C48          C51   1.693       .  S
C49         C135   1.542       .  S
C49          C53   1.527       .  S
C49          C55   1.530       .  S
C49          C54   1.572       .  S
C50          C58   1.395       .  A
C50          C53   1.379       .  A
C51          C54   1.435       .  A
C51         C549   1.474   1_545  A
C52          C66   1.397       .  A
C52          C55   1.364       .  A
C53          C56   1.383       .  A
C54         C547   1.413   1_545  A
C55          C63   1.383       .  A
C56          N57   1.352       .  A
C56          H69   1.074       .  S
N57          C88   1.468       .  S
N57          C58   1.370       .  A
C58          H59   1.070       .  S
C60         C541   1.406       .  A
C60          N61   1.362       .  A
C60          H70   1.081       .  S
N61          C62   1.420       .  A
N61         N155   1.488       .  S
C62         C538   1.483       .  A
C62          H68   1.082       .  S
C63          N64   1.357       .  A
C63          H65   1.063       .  S
N64          C76   1.477       .  S
N64          C66   1.372       .  A
C66          H67   1.076       .  S
C71          C72   1.571       .  S
C71          C77   1.554       .  S
C71          C75   1.551       .  S
C71         C417   1.552       .  S
C72          H79   1.082       .  S
C72          C73   1.347       .  D
C73          C74   1.618       .  S
C73          C96   1.616       .  S
C74          C78   1.647       .  S
C74          C76   1.583       .  S
C74          H80   1.108       .  S
C75          H81   1.079       .  S
C75          C76   1.322       .  D
C77          H82   1.081       .  S
C77          C78   1.367       .  D
C78         C189   1.635       .  S
C83          C84   1.550       .  S
C83          C89   1.545       .  S
C83          C87   1.570       .  S
C83         C380   1.520       .  S
C84          H91   1.087       .  S
C84          C85   1.340       .  D
C85          C86   1.506       .  S
C86          C90   1.581       .  S
C86          C88   1.547       .  S
C86          H92   1.111       .  S
C87          H93   1.078       .  S
C87          C88   1.372       .  D
C89          H94   1.082       .  S
C89          C90   1.352       .  D
C90         C213   1.540       .  S
C95         C179   1.615       .  S
C95          C97   1.499       .  S
C95          C99   1.537       .  S
C95          C98   1.635       .  S
C96         C100   1.511       .  S
C96         C102   1.537       .  S
C96         C101   1.641       .  S
C97         C105   1.370       .  A
C97         C100   1.377       .  A
C98         C109   1.438       .  A
C98         C101   1.442       .  A
C99         C113   1.390       .  A
C99         C102   1.403       .  A
C100        C103   1.369       .  A
C101        C107   1.441       .  A
C102        C110   1.386       .  A
C103        N104   1.343       .  A
C103        H116   1.062       .  S
N104        C125   1.423       .  S
N104        C105   1.336       .  A
C105        H106   1.077       .  S
C107        N108   1.394       .  A
C107        H117   1.082       .  S
N108        C109   1.391       .  A
C109        H115   1.081       .  S
C110        N111   1.357       .  A
C110        H112   1.082       .  S
N111        C137   1.450       .  S
N111        C113   1.354       .  A
C113        H114   1.082       .  S
C118        C119   1.570       .  S
C118        C124   1.538       .  S
C118        C122   1.563       .  S
C118        C361   1.530       .  S
C119        H126   1.086       .  S
C119        C120   1.357       .  D
C120        C121   1.526       .  S
C120        N198   1.448       .  S
C121        C125   1.521       .  S
C121        C123   1.575       .  S
C121        H127   1.111       .  S
C122        H128   1.085       .  S
C122        C123   1.372       .  D
C123        C143   1.555       .  S
C124        H129   1.078       .  S
C124        C125   1.345       .  D
C130        C131   1.535       .  S
C130        C136   1.571       .  S
C130        C134   1.558       .  S
C130        C333   1.547       .  S
C131        H138   1.084       .  S
C131        C132   1.331       .  D
C132        C133   1.513       .  S
C132        N221   1.424       .  S
C133        C137   1.525       .  S
C133        C135   1.567       .  S
C133        H139   1.108       .  S
C134        H140   1.076   1_545  S
C134        C135   1.377       .  D
C136        H141   1.085       .  S
C136        C137   1.375       .  D
C142        C144   1.531       .  S
C142        C146   1.559       .  S
C142        C145   1.667       .  S
C143        C147   1.528       .  S
C143        C149   1.553       .  S
C143        C148   1.605       .  S
C144        C152   1.381       .  A
C144        C147   1.367       .  A
C145        C156   1.459       .  A
C145        C148   1.433       .  A
C146        C160   1.403       .  A
C146        C149   1.364       .  A
C147        C150   1.384       .  A
C148        C154   1.430       .  A
C149        C157   1.403       .  A
C150        N151   1.354       .  A
C150        H163   1.077       .  S
N151        C170   1.455       .  S
N151        C152   1.362       .  A
C152        H153   1.064       .  S
C154        N155   1.386       .  A
C154        H164   1.082       .  S
N155        C156   1.403       .  A
C156        H162   1.081       .  S
C157        N158   1.370       .  A
C157        H159   1.075       .  S
N158        C182   1.510       .  S
N158        C160   1.381       .  A
C160        H161   1.074       .  S
C165        C166   1.562       .  S
C165        C171   1.545   1_554  S
C165        C169   1.560       .  S
C165        C305   1.543   1_554  S
C166        H173   1.078       .  S
C166        C167   1.370       .  D
C167        C168   1.533       .  S
C168        C172   1.561       .  S
C168        C170   1.533       .  S
C168        H174   1.111       .  S
C169        H175   1.086       .  S
C169        C170   1.364       .  D
C171        H176   1.078       .  S
C171        C172   1.354   1_556  D
C172        C190   1.536       .  S
C177        C178   1.529       .  S
C177        C183   1.556       .  S
C177        C181   1.574       .  S
C177        C268   1.532       .  S
C178        H185   1.085       .  S
C178        C179   1.349       .  D
C179        C180   1.650       .  S
C180        C184   1.621       .  S
C180        C182   1.602       .  S
C180        H186   1.109       .  S
C181        H187   1.081       .  S
C181        C182   1.354       .  D
C183        H188   1.082       .  S
C183        C184   1.350       .  D
C184        C212   1.602       .  S
C189        C191   1.529       .  S
C189        C193   1.573       .  S
C189        C192   1.706   1_554  S
C190        C194   1.532       .  S
C190        C196   1.524       .  S
C190        C195   1.564   1_554  S
C191        C199   1.385       .  A
C191        C194   1.384       .  A
C192        C203   1.481       .  A
C192        C195   1.431       .  A
C193        C207   1.412       .  A
C193        C196   1.364       .  A
C194        C197   1.377       .  A
C195        C201   1.413       .  A
C196        C204   1.379       .  A
C197        N198   1.350       .  A
C197        H210   1.076       .  S
N198        C199   1.358       .  A
C199        H200   1.078       .  S
C201        N202   1.365       .  A
C201        H211   1.077       .  S
N202        C203   1.418       .  A
N202        N225   1.489       .  S
C203        H209   1.082       .  S
C204        N205   1.362       .  A
C204        H206   1.072       .  S
N205        C207   1.359       .  A
C207        H208   1.047       .  S
C212        C214   1.501       .  S
C212        C216   1.565       .  S
C212        C215   1.701       .  S
C213        C217   1.513       .  S
C213        C219   1.555       .  S
C213        C218   1.569       .  S
C214        C222   1.366       .  A
C214        C217   1.357       .  A
C215        C226   1.475       .  A
C215        C218   1.430       .  A
C216        C230   1.404       .  A
C216        C219   1.376       .  A
C217        C220   1.363       .  A
C218        C224   1.413       .  A
C219        C227   1.400       .  A
C220        N221   1.342       .  A
C220        H233   1.077       .  S
N221        C222   1.353       .  A
C222        H223   1.060       .  S
C224        N225   1.373       .  A
C224        H234   1.076       .  S
N225        C226   1.414       .  A
C226        H232   1.081       .  S
C227        N228   1.368       .  A
C227        H229   1.079       .  S
N228        C230   1.370       .  A
C230        H231   1.064       .  S
O235        C243   1.275       .  A
O235       Co255   1.977       .  S
O236        C244   1.257       .  A
O236       Co256   1.969       .  S
O237        C245   1.295       .  A
O237       Co257   2.074       .  S
O238        C246   1.269       .  A
O238       Co258   2.003       .  S
O239        C245   1.275       .  A
O239       Co256   1.906       .  S
O240        C246   1.278       .  A
O240       Co255   1.962       .  S
O241        C244   1.259       .  A
O241       Co258   2.018       .  S
O242        C243   1.272       .  A
O242       Co257   1.993       .  S
C243        C473   1.453   1_655  S
C244        C811   1.480       .  S
C245        C389   1.461       .  S
C246        C895   1.470   1_556  S
O247        C260   1.279       .  A
O247       Co255   2.001       .  S
O248        C261   1.290       .  A
O248       Co256   2.051       .  S
O249        C262   1.266       .  A
O249       Co257   2.031       .  S
O250        C263   1.275       .  A
O250       Co258   1.834       .  S
O251        C263   1.302       .  A
O251       Co256   2.095       .  S
O252        C262   1.256   1_455  A
O252       Co255   1.986   1_455  S
O253        C260   1.270       .  A
O253       Co258   1.979       .  S
O254        C261   1.275       .  A
O254       Co257   1.906       .  S
Co255       O259   1.981       .  S
Co256       O259   2.006       .  S
Co257       O259   1.961       .  S
Co258       O259   1.885       .  S
C260        C352   1.485       .  S
C261        C445   1.460       .  S
C262        C296   1.494   1_655  S
C263        C277   1.458       .  S
C264        C265   1.415       .  A
C264        C269   1.393       .  A
C264        H274   1.072       .  S
C265        C266   1.443       .  A
C265        C270   1.507       .  S
C266        C267   1.397       .  A
C266        N271   1.430       .  S
C267        C268   1.390       .  A
C267        H272   1.085       .  S
C268        C269   1.398       .  A
C269        N273   1.430       .  S
C270        C275   1.416       .  A
C270        C279   1.395       .  A
N271        O286   1.259       .  A
N271        O287   1.263       .  A
N273        O284   1.262       .  A
N273        O285   1.262       .  A
C275        C276   1.392       .  A
C275        N280   1.430       .  S
C276        C277   1.401       .  A
C276        H281   1.081       .  S
C277        C278   1.412       .  A
C278        C279   1.391       .  A
C278        N282   1.427       .  S
C279        H283   1.076       .  S
N280        O290   1.263       .  A
N280        O291   1.261       .  A
N282        O288   1.261       .  A
N282        O289   1.257       .  A
C292        C293   1.400       .  A
C292        C297   1.392       .  A
C292        H302   1.082       .  S
C293        C294   1.418       .  A
C293        C298   1.498       .  S
C294        C295   1.411       .  A
C294        N299   1.429       .  S
C295        C296   1.407       .  A
C295        H300   1.083   1_455  S
C296        C297   1.414       .  A
C297        N301   1.426       .  S
C298        C303   1.412       .  A
C298        C307   1.405       .  A
N299        O314   1.259   1_455  A
N299        O315   1.260       .  A
N301        O312   1.262       .  A
N301        O313   1.261       .  A
C303        C304   1.396       .  A
C303        N308   1.431       .  S
C304        C305   1.412       .  A
C304        H309   1.084       .  S
C305        C306   1.421       .  A
C306        C307   1.406       .  A
C306        N310   1.425       .  S
C307        H311   1.079       .  S
N308        O318   1.262       .  A
N308        O319   1.262       .  A
N310        O316   1.262   1_456  A
N310        O317   1.262       .  A
C320        C321   1.403       .  A
C320        C325   1.392       .  A
C320        H330   1.071       .  S
C321        C322   1.427   1_545  A
C321        C326   1.527       .  S
C322        C810   1.413       .  A
C322        N327   1.436       .  S
C323        C809   1.404       .  A
C323        C811   1.404       .  A
C323        H328   1.084       .  S
C324        C325   1.403       .  A
C324        C810   1.405   1_545  A
C324        C731   1.482       .  S
C325        N329   1.419       .  S
C326        C331   1.426       .  A
C326        C335   1.411   1_545  A
N327        O343   1.263       .  A
N327        O829   1.263       .  A
N329        O340   1.260       .  A
N329        O341   1.262       .  A
C331        C332   1.405       .  A
C331        N336   1.441       .  S
C332        C333   1.411       .  A
C332        H337   1.081       .  S
C333        C334   1.421   1_545  A
C334        C335   1.412       .  A
C334        N338   1.426       .  S
C335        H339   1.073       .  S
N336        O346   1.261       .  A
N336        O347   1.263       .  A
N338        O344   1.262       .  A
N338        O832   1.262       .  A
O342        N814   1.260       .  A
O345        N825   1.262       .  A
C348        C349   1.400   1_556  A
C348        C353   1.398       .  A
C348        H358   1.081       .  S
C349        C350   1.415       .  A
C349        C354   1.493       .  S
C350        C351   1.400   1_554  A
C350        N355   1.428       .  S
C351        C352   1.409       .  A
C351        H356   1.085       .  S
C352        C353   1.416       .  A
C353        N357   1.431       .  S
C354        C359   1.428       .  A
C354        C363   1.403       .  A
N355        O370   1.262       .  A
N355        O371   1.260       .  A
N357        O368   1.260       .  A
N357        O369   1.262       .  A
C359        C360   1.390       .  A
C359        N364   1.427   1_554  S
C360        C361   1.388       .  A
C360        H365   1.086       .  S
C361        C362   1.421       .  A
C362        C363   1.404       .  A
C362        N366   1.432       .  S
C363        H367   1.081       .  S
N364        O374   1.260       .  A
N364        O375   1.259       .  A
N366        O372   1.263       .  A
N366        O373   1.262       .  A
C376        C377   1.411       .  A
C376        C381   1.393   1_655  A
C376        H386   1.081       .  S
C377        C378   1.410       .  A
C377        C382   1.486       .  S
C378        C379   1.400   1_655  A
C378        N383   1.430       .  S
C379        C380   1.415       .  A
C379        H384   1.084       .  S
C380        C381   1.403       .  A
C381        N385   1.430       .  S
C382        C387   1.414       .  A
C382        C391   1.398       .  A
N383        O885   1.262       .  A
N383        O886   1.262       .  A
N385        O396   1.261       .  A
N385        O397   1.261       .  A
C387        C388   1.399       .  A
C387        N392   1.429       .  S
C388        C876   1.399       .  A
C388        H393   1.084       .  S
C389        C875   1.399       .  A
C389        C877   1.411       .  A
C390        C391   1.394       .  A
C390        C876   1.410       .  A
C390        N881   1.426       .  S
C391        H395   1.080       .  S
N392        O402   1.262       .  A
N392        O403   1.261       .  A
N394        C877   1.426       .  S
N394        O400   1.260       .  A
N394        O401   1.261       .  A
O398        N870   1.262       .  A
O399        N870   1.262       .  A
C404        C405   1.394   1_565  A
C404        C896   1.400       .  A
C404        H414   1.081       .  S
C405        C406   1.408       .  A
C405        C410   1.521       .  S
C406        C407   1.419       .  A
C406        N411   1.430       .  S
C407        C408   1.409   1_545  A
C407        H412   1.072       .  S
C408        C896   1.422       .  A
C408        C733   1.483       .  S
C409        C891   1.386       .  A
C409        C895   1.401       .  A
C409        N413   1.423       .  S
C410        C415   1.432       .  A
C410        C419   1.421       .  A
N411        O426   1.262       .  A
N411        O427   1.261       .  A
N413        O424   1.261       .  A
N413        O425   1.262       .  A
C415        C416   1.411       .  A
C415        N420   1.438       .  S
C416        C417   1.407       .  A
C416        H421   1.083       .  S
C417        C418   1.388       .  A
C418        C419   1.394       .  A
C418        N422   1.421       .  S
C419        H423   1.069       .  S
N420        O430   1.263       .  A
N420        O431   1.263   1_545  A
N422        O428   1.262       .  A
N422        O429   1.260   1_554  A
C432        C433   1.402   1_455  A
C432        C437   1.398       .  A
C432        H442   1.084       .  S
C433        C434   1.389       .  A
C433        C438   1.447       .  S
C434        C435   1.376   1_655  A
C434        N439   1.431       .  S
C435        C436   1.419       .  A
C435        H440   1.080       .  S
C436        C437   1.414       .  A
C437        N441   1.431       .  S
C438        C443   1.403       .  A
C438        C447   1.398       .  A
N439        O454   1.262       .  A
N439        O455   1.262       .  A
N441        O452   1.261       .  A
N441        O453   1.262       .  A
C443        C444   1.390       .  A
C443        N448   1.442       .  S
C444        C445   1.407       .  A
C444        H449   1.084       .  S
C445        C446   1.404       .  A
C446        C447   1.392       .  A
C446        N450   1.427       .  S
C447        H451   1.084       .  S
N448        O458   1.262       .  A
N448        O459   1.262       .  A
N450        O456   1.260       .  A
N450        O457   1.262       .  A
C460        C461   1.411       .  A
C460        C465   1.386       .  A
C460        H470   1.079       .  S
C461        C462   1.436       .  A
C461        C466   1.521   1_554  S
C462        C463   1.420       .  A
C462        N467   1.429   1_554  S
C463        C464   1.410       .  A
C463        H468   1.082       .  S
C464        C465   1.404       .  A
C465        N469   1.430   1_455  S
C466        C475   1.406       .  A
C466        C958   1.398       .  A
N467        O482   1.262       .  A
N467        O483   1.262       .  A
N469        O480   1.261       .  A
N469        O481   1.260       .  A
C471        C472   1.399       .  A
C471        C953   1.405       .  A
C471        N476   1.433       .  S
C472        C473   1.405       .  A
C472        H477   1.083       .  S
C473        C961   1.412       .  A
C474        C475   1.408       .  A
C474        C960   1.418       .  A
C474        N478   1.426   1_455  S
C475        H479   1.084       .  S
N476        O486   1.261       .  A
N476        O487   1.262       .  A
N478        O484   1.261       .  A
N478        O485   1.260       .  A
C488        C489   1.543       .  S
C488        C494   1.554       .  S
C488        C492   1.559       .  S
C488        C951   1.522       .  S
C489        H496   1.087       .  S
C489        C490   1.332       .  D
C490        C491   1.583       .  S
C490        N692   1.478       .  S
C491        C495   1.642       .  S
C491        C493   1.647       .  S
C491        H497   1.109       .  S
C492        H498   1.085       .  S
C492        C493   1.366       .  D
C493        C535   1.635       .  S
C494        H499   1.079       .  S
C494        C495   1.353       .  D
C495        C500   1.632       .  S
C500        C502   1.537       .  S
C500        C504   1.507       .  S
C500        C503   1.646       .  S
C501        C530   1.620       .  S
C501        C505   1.524       .  S
C501        C507   1.508       .  S
C501        C506   1.643       .  S
C502        C510   1.385       .  A
C502        C505   1.398       .  A
C503        C514   1.443   1_455  A
C503        C506   1.444       .  A
C504        C518   1.370       .  A
C504        C507   1.395       .  A
C505        C508   1.385       .  A
C506        C512   1.441   1_455  A
C507        C515   1.374       .  A
C508        N509   1.350       .  A
C508        H521   1.081       .  S
N509        C654   1.447       .  S
N509        C510   1.356       .  A
C510        H511   1.080       .  S
C512        N513   1.392       .  A
C512        H522   1.081       .  S
N513        C514   1.395       .  A
N513        N595   1.487       .  S
C514        H520   1.082       .  S
C515        N516   1.332       .  A
C515        H517   1.076       .  S
N516        C572   1.418       .  S
N516        C518   1.337       .  A
C518        H519   1.072       .  S
C523        C524   1.551       .  S
C523        C529   1.548       .  S
C523        C527   1.535       .  S
C523        C923   1.515       .  S
C524        H531   1.083       .  S
C524        C525   1.365       .  D
C525        C526   1.581       .  S
C525        N715   1.491       .  S
C526        C530   1.645       .  S
C526        C528   1.633       .  S
C526        H532   1.110       .  S
C527        H533   1.086       .  S
C527        C528   1.345       .  D
C528        C629   1.603       .  S
C529        H534   1.083       .  S
C529        C530   1.350       .  D
C535        C537   1.531       .  S
C535        C539   1.567       .  S
C535        C538   1.722       .  S
C536        C622   1.524       .  S
C536        C540   1.545       .  S
C536        C542   1.529       .  S
C536        C541   1.545       .  S
C537        C545   1.388       .  A
C537        C540   1.369       .  A
C538        C541   1.435       .  A
C539        C553   1.403       .  A
C539        C542   1.359       .  A
C540        C543   1.391       .  A
C542        C550   1.385       .  A
C543        N544   1.354       .  A
C543        H556   1.072       .  S
N544        C575   1.469       .  S
N544        C545   1.365       .  A
C545        H546   1.065       .  S
C547        N548   1.368       .  A
C547        H557   1.080       .  S
N548        C549   1.414       .  A
N548        N642   1.486       .  S
C549        H555   1.082       .  S
C550        N551   1.361       .  A
C550        H552   1.076       .  S
N551        C563   1.488       .  S
N551        C553   1.368       .  A
C553        H554   1.055       .  S
C558        C559   1.513       .  S
C558        C564   1.578       .  S
C558        C562   1.552       .  S
C558        C904   1.536       .  S
C559        H566   1.079       .  S
C559        C560   1.320       .  D
C560        C561   1.633       .  S
C560        C583   1.602       .  S
C561        C565   1.665       .  S
C561        C563   1.571       .  S
C561        H567   1.109       .  S
C562        H568   1.086       .  S
C562        C563   1.361       .  D
C564        H569   1.081       .  S
C564        C565   1.391       .  D
C565        C676   1.673       .  S
C570        C571   1.545       .  S
C570        C576   1.559       .  S
C570        C574   1.569       .  S
C570        C867   1.526       .  S
C571        H578   1.088       .  S
C571        C572   1.338       .  D
C572        C573   1.503       .  S
C573        C577   1.591       .  S
C573        C575   1.548       .  S
C573        H579   1.111       .  S
C574        H580   1.079       .  S
C574        C575   1.368       .  D
C576        H581   1.085       .  S
C576        C577   1.361       .  D
C577        C700   1.560       .  S
C582        C666   1.602       .  S
C582        C584   1.495       .  S
C582        C586   1.539       .  S
C582        C585   1.632       .  S
C583        C587   1.492       .  S
C583        C589   1.539       .  S
C583        C588   1.653       .  S
C584        C592   1.366       .  A
C584        C587   1.373       .  A
C585        C596   1.443       .  A
C585        C588   1.436       .  A
C586        C600   1.396       .  A
C586        C589   1.392       .  A
C587        C590   1.354       .  A
C588        C594   1.446       .  A
C589        C597   1.371       .  A
C590        N591   1.335       .  A
C590        H603   1.033       .  S
N591        C612   1.403       .  S
N591        C592   1.332       .  A
C592        H593   1.081       .  S
C594        N595   1.390       .  A
C594        H604   1.079       .  S
N595        C596   1.393       .  A
C596        H602   1.081       .  S
C597        N598   1.359       .  A
C597        H599   1.056       .  S
N598        C624   1.452       .  S
N598        C600   1.360       .  A
C600        H601   1.083       .  S
C605        C606   1.572       .  S
C605        C611   1.532       .  S
C605        C609   1.561       .  S
C605        C848   1.519       .  S
C606        H613   1.086       .  S
C606        C607   1.356       .  D
C607        C608   1.534       .  S
C607        N685   1.459       .  S
C608        C612   1.503       .  S
C608        C610   1.575       .  S
C608        H614   1.111       .  S
C609        H615   1.085       .  S
C609        C610   1.368       .  D
C610        C630   1.555       .  S
C611        H616   1.078       .  S
C611        C612   1.343       .  D
C617        C618   1.521       .  S
C617        C623   1.584       .  S
C617        C621   1.548       .  S
C617        C820   1.537       .  S
C618        H625   1.088       .  S
C618        C619   1.326       .  D
C619        C620   1.510       .  S
C619        N708   1.415       .  S
C620        C624   1.516       .  S
C620        C622   1.567       .  S
C620        H626   1.110       .  S
C621        H627   1.080       .  S
C621        C622   1.363       .  D
C623        H628   1.084       .  S
C623        C624   1.388       .  D
C629        C631   1.520       .  S
C629        C633   1.562       .  S
C629        C632   1.677       .  S
C630        C634   1.513       .  S
C630        C636   1.559       .  S
C630        C635   1.593       .  S
C631        C639   1.374       .  A
C631        C634   1.362       .  A
C632        C643   1.462       .  A
C632        C635   1.436       .  A
C633        C647   1.404       .  A
C633        C636   1.372       .  A
C634        C637   1.371       .  A
C635        C641   1.423       .  A
C636        C644   1.403       .  A
C637        N638   1.345       .  A
C637        H650   1.078       .  S
N638        C657   1.434       .  S
N638        C639   1.357       .  A
C639        H640   1.063       .  S
C641        N642   1.381       .  A
C641        H651   1.082       .  S
N642        C643   1.406       .  A
C643        H649   1.081       .  S
C644        N645   1.370       .  A
C644        H646   1.075       .  S
N645        C669   1.508       .  S
N645        C647   1.380       .  A
C647        H648   1.074       .  S
C652        C653   1.564       .  S
C652        C658   1.554       .  S
C652        C656   1.536       .  S
C652        C792   1.540   1_554  S
C653        H660   1.083       .  S
C653        C654   1.376       .  D
C654        C655   1.533       .  S
C655        C659   1.564       .  S
C655        C657   1.527       .  S
C655        H661   1.110       .  S
C656        H662   1.087       .  S
C656        C657   1.346       .  D
C658        H663   1.072   1_554  S
C658        C659   1.364       .  D
C659        C677   1.548       .  S
C664        C665   1.527       .  S
C664        C670   1.543       .  S
C664        C668   1.567       .  S
C664        C755   1.502       .  S
C665        H672   1.086       .  S
C665        C666   1.342       .  D
C666        C667   1.648       .  S
C667        C671   1.611       .  S
C667        C669   1.602       .  S
C667        H673   1.109       .  S
C668        H674   1.086       .  S
C668        C669   1.360       .  D
C670        H675   1.079       .  S
C670        C671   1.348       .  D
C671        C699   1.587       .  S
C676        C678   1.563       .  S
C676        C680   1.566       .  S
C676        C679   1.704   1_554  S
C677        C681   1.512       .  S
C677        C683   1.514       .  S
C677        C682   1.570   1_554  S
C678        C686   1.399       .  A
C678        C681   1.383       .  A
C679        C690   1.480       .  A
C679        C682   1.440       .  A
C680        C694   1.398       .  A
C680        C683   1.370       .  A
C681        C684   1.372       .  A
C682        C688   1.410       .  A
C683        C691   1.373       .  A
C684        N685   1.347       .  A
C684        H697   1.072       .  S
N685        C686   1.371       .  A
C686        H687   1.083       .  S
C688        N689   1.360       .  A
C688        H698   1.077       .  S
N689        C690   1.417       .  A
N689        N712   1.485       .  S
C690        H696   1.082       .  S
C691        N692   1.351       .  A
C691        H693   1.062       .  S
N692        C694   1.379       .  A
C694        H695   1.078       .  S
C699        C701   1.495       .  S
C699        C703   1.560       .  S
C699        C702   1.682       .  S
C700        C704   1.514       .  S
C700        C706   1.555       .  S
C700        C705   1.583       .  S
C701        C709   1.366       .  A
C701        C704   1.358       .  A
C702        C713   1.461       .  A
C702        C705   1.429       .  A
C703        C717   1.406       .  A
C703        C706   1.384       .  A
C704        C707   1.353       .  A
C705        C711   1.423       .  A
C706        C714   1.394       .  A
C707        N708   1.341       .  A
C707        H720   1.077       .  S
N708        C709   1.352       .  A
C709        H710   1.060       .  S
C711        N712   1.382       .  A
C711        H721   1.082       .  S
N712        C713   1.403       .  A
C713        H719   1.077       .  S
C714        N715   1.365       .  A
C714        H716   1.079       .  S
N715        C717   1.367       .  A
C717        H718   1.067       .  S
O722        C730   1.290       .  A
O722       Co742   2.014       .  S
O723        C731   1.249       .  A
O723       Co743   1.958   1_545  S
O724        C732   1.293       .  A
O724       Co744   2.068       .  S
O725        C733   1.272       .  A
O725       Co745   1.995   1_554  S
O726        C732   1.269       .  A
O726       Co743   1.909   1_545  S
O727        C733   1.289   1_545  A
O727       Co742   2.010   1_554  S
O728        C731   1.267   1_565  A
O728       Co745   2.046       .  S
O729        C730   1.277       .  A
O729       Co744   1.986       .  S
C730        C960   1.473   1_655  S
C732        C876   1.453       .  S
O734        C747   1.276       .  A
O734       Co742   2.012   1_565  S
O735        C748   1.282       .  A
O735       Co743   2.038       .  S
O736        C749   1.265       .  A
O736       Co744   1.999   1_465  S
O737        C750   1.273       .  A
O737       Co745   1.831       .  S
O738        C750   1.294       .  A
O738       Co743   2.076       .  S
O739        C749   1.261   1_545  A
O739       Co742   2.001   1_455  S
O740        C747   1.262       .  A
O740       Co745   1.963       .  S
O741        C748   1.277       .  A
O741       Co744   1.937   1_565  S
Co742       O746   2.010   1_545  S
Co743       O746   1.992       .  S
Co744       O746   1.975   1_545  S
Co745       O746   1.872       .  S
C747        C839   1.476       .  S
C748        C932   1.472       .  S
C749        C783   1.494       .  S
C750        C764   1.465       .  S
C751        C752   1.397       .  A
C751        C756   1.383       .  A
C751        H761   1.079       .  S
C752        C753   1.420       .  A
C752        C757   1.463       .  S
C753        C754   1.384       .  A
C753        N758   1.432       .  S
C754        C755   1.396       .  A
C754        H759   1.085       .  S
C755        C756   1.409       .  A
C756        N760   1.433       .  S
C757        C762   1.408       .  A
C757        C766   1.396       .  A
N758        O773   1.259       .  A
N758        O774   1.262       .  A
N760        O771   1.262       .  A
N760        O772   1.262       .  A
C762        C763   1.385       .  A
C762        N767   1.433       .  S
C763        C764   1.403       .  A
C763        H768   1.079       .  S
C764        C765   1.416       .  A
C765        C766   1.387       .  A
C765        N769   1.431       .  S
C766        H770   1.081       .  S
N767        O777   1.261       .  A
N767        O778   1.262       .  A
N769        O775   1.262       .  A
N769        O776   1.260       .  A
C779        C780   1.402       .  A
C779        C784   1.400       .  A
C779        H789   1.085       .  S
C780        C781   1.408       .  A
C780        C785   1.489       .  S
C781        C782   1.404       .  A
C781        N786   1.426       .  S
C782        C783   1.407       .  A
C782        H787   1.084       .  S
C783        C784   1.419       .  A
C784        N788   1.429       .  S
C785        C790   1.406       .  A
C785        C794   1.400       .  A
N786        O801   1.260       .  A
N786        O802   1.262       .  A
N788        O799   1.261   1_556  A
N788        O800   1.261       .  A
C790        C791   1.406       .  A
C790        N795   1.429       .  S
C791        C792   1.420       .  A
C791        H796   1.077       .  S
C792        C793   1.420       .  A
C793        C794   1.395       .  A
C793        N797   1.429   1_556  S
C794        H798   1.081       .  S
N795        O805   1.262       .  A
N795        O806   1.262       .  A
N797        O803   1.262       .  A
N797        O804   1.262       .  A
C807        C808   1.409       .  A
C807        C812   1.400       .  A
C807        H817   1.075       .  S
C808        C809   1.419       .  A
C808        C813   1.509       .  S
C809        N814   1.428       .  S
C810        H815   1.083       .  S
C811        C812   1.401       .  A
C812        N816   1.428       .  S
C813        C818   1.413       .  A
C813        C822   1.402       .  A
N814        O830   1.262       .  A
N816        O827   1.262       .  A
N816        O828   1.261   1_556  A
C818        C819   1.404       .  A
C818        N823   1.442       .  S
C819        C820   1.409       .  A
C819        H824   1.076       .  S
C820        C821   1.439       .  A
C821        C822   1.409       .  A
C821        N825   1.430       .  S
C822        H826   1.080       .  S
N823        O833   1.261       .  A
N823        O834   1.263       .  A
N825        O831   1.262       .  A
C835        C836   1.403       .  A
C835        C840   1.400   1_554  A
C835        H845   1.082   1_554  S
C836        C837   1.421       .  A
C836        C841   1.488       .  S
C837        C838   1.395       .  A
C837        N842   1.430       .  S
C838        C839   1.400   1_554  A
C838        H843   1.084   1_655  S
C839        C840   1.411       .  A
C840        N844   1.431       .  S
C841        C846   1.420       .  A
C841        C850   1.400       .  A
N842        O857   1.262       .  A
N842        O858   1.261       .  A
N844        O855   1.260       .  A
N844        O856   1.262       .  A
C846        C847   1.385       .  A
C846        N851   1.419       .  S
C847        C848   1.388       .  A
C847        H852   1.085       .  S
C848        C849   1.422       .  A
C849        C850   1.398       .  A
C849        N853   1.431       .  S
C850        H854   1.081       .  S
N851        O861   1.260   1_554  A
N851        O862   1.260       .  A
N853        O859   1.263       .  A
N853        O860   1.262       .  A
C863        C864   1.404       .  A
C863        C868   1.390   1_655  A
C863        H873   1.083       .  S
C864        C865   1.408       .  A
C864        C869   1.492       .  S
C865        C866   1.404   1_655  A
C865        N870   1.429       .  S
C866        C867   1.418       .  A
C866        H871   1.082       .  S
C867        C868   1.417       .  A
C868        N872   1.424       .  S
C869        C874   1.416       .  A
C869        C878   1.399       .  A
N872        O883   1.262       .  A
N872        O884   1.262       .  A
C874        C875   1.399       .  A
C874        N879   1.430       .  S
C875        H880   1.084       .  S
C877        C878   1.397       .  A
C878        H882   1.082       .  S
N879        O889   1.262       .  A
N879        O890   1.262       .  A
N881        O887   1.260       .  A
N881        O888   1.262       .  A
C891        C892   1.401       .  A
C891        H901   1.085       .  S
C892        C893   1.407       .  A
C892        C897   1.456       .  S
C893        C894   1.402       .  A
C893        N898   1.420       .  S
C894        C895   1.405       .  A
C894        H899   1.083       .  S
C896        N900   1.414       .  S
C897        C902   1.409       .  A
C897        C906   1.372       .  A
N898        O913   1.262       .  A
N898        O914   1.261       .  A
N900        O911   1.259       .  A
N900        O912   1.261       .  A
C902        C903   1.407       .  A
C902        N907   1.421   1_554  S
C903        C904   1.401       .  A
C903        H908   1.081       .  S
C904        C905   1.442       .  A
C905        C906   1.381       .  A
C905        N909   1.424       .  S
C906        H910   1.086       .  S
N907        O917   1.258       .  A
N907        O918   1.260       .  A
N909        O915   1.263       .  A
N909        O916   1.262       .  A
C919        C920   1.397   1_455  A
C919        C924   1.386       .  A
C919        H929   1.085       .  S
C920        C921   1.407       .  A
C920        C925   1.466       .  S
C921        C922   1.394   1_655  A
C921        N926   1.431       .  S
C922        C923   1.413       .  A
C922        H927   1.080       .  S
C923        C924   1.416       .  A
C924        N928   1.430       .  S
C925        C930   1.408       .  A
C925        C934   1.402       .  A
N926        O941   1.262       .  A
N926        O942   1.262       .  A
N928        O939   1.262       .  A
N928        O940   1.262       .  A
C930        C931   1.387       .  A
C930        N935   1.433       .  S
C931        C932   1.405       .  A
C931        H936   1.082       .  S
C932        C933   1.408       .  A
C933        C934   1.402       .  A
C933        N937   1.428       .  S
C934        H938   1.083       .  S
N935        O945   1.260       .  A
N935        O946   1.259       .  A
N937        O943   1.262       .  A
N937        O944   1.262       .  A
C947        C948   1.414   1_554  A
C947        C952   1.387       .  A
C947        H957   1.079   1_554  S
C948        C949   1.424   1_556  A
C948        C953   1.520       .  S
C949        C950   1.407       .  A
C949        N954   1.427   1_554  S
C950        C951   1.412       .  A
C950        H955   1.082       .  S
C951        C952   1.418       .  A
C952        N956   1.428       .  S
C953        C962   1.407       .  A
N954        O969   1.262       .  A
N954        O970   1.261       .  A
N956        O967   1.262       .  A
N956        O968   1.259   1_455  A
C958        C959   1.404       .  A
C958        N963   1.424       .  S
C959        C960   1.411       .  A
C959        H964   1.079       .  S
C961        C962   1.406       .  A
C961        N965   1.437   1_455  S
C962        H966   1.083       .  S
N963        O973   1.261       .  A
N963        O974   1.261       .  A
N965        O971   1.260       .  A
N965        O972   1.263       .  A
