geometry optimzed in LAMMPS
_audit_creation_date              2020-11-30 
_audit_creation_method            'lammps2cif' 
_symmetry_space_group_name_H-M    'P1' 
_symmetry_Int_Tables_number       1 
_symmetry_cell_setting            triclinic 
loop_ 
_symmetry_equiv_pos_as_xyz 
  x,y,z 
_cell_length_a                    38.65448467802209 
_cell_length_b                    38.532415265889746 
_cell_length_c                    38.56886386266916 
_cell_angle_alpha                 90.02971724761294 
_cell_angle_beta                  90.14515157587108 
_cell_angle_gamma                 89.95176430318166 
loop_ 
_atom_site_label 
_atom_site_type_symbol 
_atom_site_fract_x 
_atom_site_fract_y 
_atom_site_fract_z 
_atom_site_charge 
C1          C  0.36750902  0.36764028  0.50051419     0.03430
C2          C  0.33256749  0.37829381  0.99891674    -0.12720
C3          C  0.30602638  0.35379017  0.99900243     0.00930
C4          C  0.31402073  0.31855743  0.00064356    -0.11250
C5          C  0.34834045  0.30710282  0.50316107     0.03420
C6          C  0.37518440  0.33178147  0.50273241    -0.10670
H7          H  0.32578968  0.40555500  0.99766318     0.09020
H8          H  0.29303848  0.29988662  0.00028183     0.06540
H9          H  0.40176376  0.32313167  0.50487390     0.06390
C10         C  0.36682604  0.09779648  0.49696747     0.03430
C11         C  0.33200744  0.08711846  0.49394472    -0.12720
C12         C  0.30544892  0.11164589  0.49237949     0.00930
C13         C  0.31335899  0.14691013  0.49368553    -0.11250
C14         C  0.34746766  0.15830046  0.49834159     0.03420
C15         C  0.37434814  0.13367360  0.49916108    -0.10670
H16         H  0.32530690  0.05982786  0.49331568     0.09020
H17         H  0.29242610  0.16564302  0.49251468     0.06540
H18         H  0.40075622  0.14241089  0.50264635     0.06390
C19         C  0.09836971  0.09851975  0.49803279     0.03430
C20         C  0.13345075  0.08851001  0.49650528    -0.12720
C21         C  0.15960977  0.11351569  0.49667765     0.00930
C22         C  0.15099592  0.14871996  0.49841093    -0.11250
C23         C  0.11636972  0.15921323  0.49961854     0.03420
C24         C  0.09004761  0.13418843  0.49934790    -0.10670
H25         H  0.14063931  0.06134702  0.49538332     0.09020
H26         H  0.17135957  0.16807243  0.49866474     0.06540
H27         H  0.06331975  0.14259586  0.50043192     0.06390
C28         C  0.09892431  0.36778536  0.00063745     0.03430
C29         C  0.13403040  0.37771071  0.00009143    -0.12720
C30         C  0.16013270  0.35259552  0.99985986     0.00930
C31         C  0.15144469  0.31738520  0.00045797    -0.11250
C32         C  0.11679635  0.30699625  0.00101745     0.03420
C33         C  0.09053467  0.33211887  0.00098032    -0.10670
H34         H  0.14126360  0.40486921  0.99968676     0.09020
H35         H  0.17176880  0.29795675  0.00035585     0.06540
H36         H  0.06378154  0.32376815  0.00133731     0.06390
C37         C  0.36743859  0.48059370  0.38484903     0.03430
C38         C  0.33226566  0.48076171  0.39474542    -0.12720
C39         C  0.30617906  0.48303537  0.36965685     0.00930
C40         C  0.31510052  0.48418955  0.33460148    -0.11250
C41         C  0.34971971  0.48460334  0.32407721     0.03420
C42         C  0.37591427  0.48219267  0.34922610    -0.10670
H43         H  0.32504434  0.48038334  0.42186599     0.09020
H44         H  0.29471786  0.48562419  0.31526860     0.06540
H45         H  0.40269492  0.48285252  0.34104731     0.06390
C46         C  0.09866187  0.48338975  0.38486311     0.03430
C47         C  0.13380326  0.48547933  0.39477253    -0.12720
C48         C  0.15983368  0.48581248  0.36966894     0.00930
C49         C  0.15096479  0.48317408  0.33462341    -0.11250
C50         C  0.11639475  0.48024826  0.32415850     0.03420
C51         C  0.09018378  0.48099349  0.34925658    -0.10670
H52         H  0.14106626  0.48738482  0.42185638     0.09020
H53         H  0.17127743  0.48317685  0.31526296     0.06540
H54         H  0.06345268  0.47889325  0.34102085     0.06390
C55         C  0.09925843  0.48335198  0.11535700     0.03430
C56         C  0.09062738  0.48207761  0.15095246    -0.12720
C57         C  0.11667606  0.47959913  0.17624931     0.00930
C58         C  0.15134829  0.47907702  0.16587117    -0.11250
C59         C  0.16044601  0.48023783  0.13085134     0.03420
C60         C  0.13448313  0.48285735  0.10563320    -0.10670
H61         H  0.06380674  0.48189951  0.15901977     0.09020
H62         H  0.17161051  0.47735547  0.18530988     0.06540
H63         H  0.14182918  0.48340008  0.07855007     0.06390
C64         C  0.36809617  0.48378204  0.11539583     0.03430
C65         C  0.37669077  0.48588018  0.15098904    -0.12720
C66         C  0.35058060  0.48603029  0.17620115     0.00930
C67         C  0.31596879  0.48310251  0.16580078    -0.11250
C68         C  0.30698643  0.48086092  0.13076122     0.03420
C69         C  0.33293765  0.48157446  0.10558096    -0.10670
H70         H  0.40343969  0.48808460  0.15913598     0.09020
H71         H  0.29570882  0.48271414  0.18521182     0.06540
H72         H  0.32560570  0.47980222  0.07850695     0.06390
C73         C  0.48315907  0.09827802  0.38437714     0.03430
C74         C  0.48179009  0.13365125  0.39377532    -0.12720
C75         C  0.48199447  0.15939986  0.36826538     0.00930
C76         C  0.48410695  0.15008111  0.33335530    -0.11250
C77         C  0.48572628  0.11518167  0.32350138     0.03420
C78         C  0.48483676  0.08926764  0.34893690    -0.10670
H79         H  0.48036883  0.14132891  0.42076349     0.09020
H80         H  0.48454169  0.17019146  0.31368308     0.06540
H81         H  0.48618395  0.06231499  0.34103570     0.06390
C82         C  0.48270311  0.36727484  0.38463115     0.03430
C83         C  0.48195117  0.33183424  0.39372006    -0.12720
C84         C  0.48165876  0.30629011  0.36793069     0.00930
C85         C  0.48254546  0.31592257  0.33301854    -0.11250
C86         C  0.48360771  0.35090776  0.32359088     0.03420
C87         C  0.48347001  0.37656269  0.34925679    -0.10670
H88         H  0.48131331  0.32395701  0.42067480     0.09020
H89         H  0.48249210  0.29606846  0.31306520     0.06540
H90         H  0.48420309  0.40357832  0.34151597     0.06390
C91         C  0.48273185  0.09873461  0.11550747     0.03430
C92         C  0.48496417  0.08954937  0.15089100    -0.12720
C93         C  0.48578973  0.11530270  0.17648696     0.00930
C94         C  0.48330975  0.15019129  0.16690490    -0.11250
C95         C  0.48070649  0.15976131  0.13206210     0.03420
C96         C  0.48083917  0.13414242  0.10634070    -0.10670
H97         H  0.48674517  0.06258140  0.15863450     0.09020
H98         H  0.48348275  0.17012755  0.18678155     0.06540
H99         H  0.47892967  0.14190397  0.07940761     0.06390
C100        C  0.48457920  0.36773175  0.11578927     0.03430
C101        C  0.48546741  0.37711951  0.15114553    -0.12720
C102        C  0.48438220  0.35156785  0.17684942     0.00930
C103        C  0.48205759  0.31665291  0.16749120    -0.11250
C104        C  0.48098983  0.30682701  0.13259800     0.03420
C105        C  0.48274058  0.33226623  0.10675623    -0.10670
H106        H  0.48691075  0.40412843  0.15883824     0.09020
H107        H  0.48098677  0.29696282  0.18755709     0.06540
H108        H  0.48179147  0.32434753  0.07981235     0.06390
O109        O  0.38575613  0.42630905  0.50023972    -0.86190
O110        O  0.08112846  0.42671455  0.50060129    -0.86360
O111        O  0.48277150  0.38432974  0.44379831    -0.88020
O112        O  0.48430666  0.38458046  0.05663374    -0.86780
O113        O  0.48451976  0.42683900  0.09851636    -0.86370
O114        O  0.48295614  0.42636303  0.40174316    -0.87740
O115        O  0.03963232  0.38423163  0.50053313    -0.86220
O116        O  0.42716741  0.38369895  0.50037217    -0.85810
Zr117      Zr  0.48335119  0.41279133  0.50021570     2.84310
O118        O  0.01835917  0.44791783  0.03525462    -1.07780
O119        O  0.44833691  0.44758005  0.46498042    -1.08510
C120        C  0.39537075  0.39417672  0.50034430     1.06920
C121        C  0.07141438  0.39461791  0.50064527     1.06860
C122        C  0.48277398  0.39440958  0.41184044     1.09840
C123        C  0.48461118  0.39481245  0.08853764     1.07620
H124        H  0.03273639  0.43320254  0.45056901     0.33180
O125        O  0.01824321  0.44763909  0.46496615    -1.28730
H126        H  0.43410597  0.43337791  0.04993960     0.32840
O127        O  0.44848156  0.44776478  0.03541371    -1.30410
O128        O  0.08073247  0.03963640  0.49884345    -0.86180
O129        O  0.38528824  0.03913365  0.49895521    -0.87680
O130        O  0.03934769  0.48312691  0.40139834    -0.86260
O131        O  0.03992943  0.48353438  0.09861425    -0.86310
O132        O  0.42735795  0.48365648  0.09876167    -0.86020
O133        O  0.42678465  0.48136985  0.40146046    -0.85830
O134        O  0.48309062  0.08117750  0.44340452    -0.86200
O135        O  0.48240501  0.08160794  0.05634991    -0.85660
O136        O  0.48312605  0.03904969  0.40139127    -0.86720
O137        O  0.48304819  0.03959986  0.09843643    -0.85880
O138        O  0.08105401  0.48343891  0.44375426    -0.86280
O139        O  0.38525517  0.48102942  0.44378392    -0.86000
O140        O  0.38557597  0.48361602  0.05646174    -0.85650
O141        O  0.08149818  0.48356647  0.05633230    -0.86060
O142        O  0.03902790  0.08198370  0.49899952    -0.86360
O143        O  0.42647666  0.08190704  0.49911829    -0.87700
Zr144      Zr  0.05268382  0.48314625  0.50005409     2.83100
Zr145      Zr  0.41385100  0.48278098  0.50009113     2.83500
Zr146      Zr  0.48312788  0.48274366  0.43006437     2.84090
Zr147      Zr  0.48352011  0.48322710  0.07003494     2.83360
Zr148      Zr  0.48284794  0.05314306  0.49990422     2.84220
O149        O  0.44819957  0.01825551  0.03522363    -1.08270
O150        O  0.01789136  0.01817818  0.46489479    -1.07770
C151        C  0.07087032  0.07168960  0.49859736     1.06890
C152        C  0.39474151  0.07130837  0.49856850     1.09510
C153        C  0.07120084  0.48336602  0.41170543     1.07060
C154        C  0.07175747  0.48360596  0.08837597     1.07420
C155        C  0.39549037  0.48375833  0.08849735     1.07010
C156        C  0.39498283  0.48082226  0.41174383     1.06560
C157        C  0.48313565  0.07104164  0.41146725     1.06980
C158        C  0.48265660  0.07155222  0.08832250     1.06500
H159        H  0.43348167  0.03219254  0.45014794     0.33180
O160        O  0.44805385  0.01796889  0.46473029    -1.29370
H161        H  0.03265828  0.03307990  0.04944528     0.33200
O162        O  0.01818219  0.01851604  0.03510935    -1.30750
C163        C  0.44876028  0.21515996  0.13633081    -0.21010
C164        C  0.47740978  0.19688029  0.12362250    -0.09050
C165        C  0.00498112  0.21517231  0.10853461     0.29810
C166        C  0.00490328  0.25154823  0.10875451    -0.21010
C167        C  0.47741109  0.26970912  0.12412222    -0.09060
C168        C  0.44867441  0.25130673  0.13655626     0.29820
F169        F  0.42154736  0.26836395  0.15100398    -0.19580
H170        H  0.42736416  0.20134566  0.14804055     0.18180
H171        H  0.02733008  0.26543753  0.09929173     0.18190
F172        F  0.03318658  0.19797967  0.09653182    -0.19570
C173        C  0.45420763  0.36572308  0.26823911    -0.21010
C174        C  0.48501996  0.35983132  0.28658313    -0.09050
C175        C  0.01630474  0.35649473  0.26848832     0.29810
C176        C  0.01637437  0.35681999  0.23228133    -0.21010
C177        C  0.48526269  0.36042778  0.21389059    -0.09060
C178        C  0.45426372  0.36591825  0.23198092     0.29820
F179        F  0.42380664  0.36855576  0.21458829    -0.19580
H180        H  0.42986834  0.36782246  0.28195295     0.18180
H181        H  0.04033729  0.35204531  0.21856271     0.18190
F182        F  0.04631473  0.35048142  0.28583489    -0.19570
C183        C  0.01757944  0.12030638  0.26822886    -0.21010
C184        C  0.48921679  0.10686219  0.28636702    -0.09050
C185        C  0.46221976  0.09072560  0.26795026     0.29810
C186        C  0.46246405  0.09072055  0.23159481    -0.21010
C187        C  0.48957065  0.10684281  0.21357155    -0.09060
C188        C  0.01782803  0.12030382  0.23212160     0.29820
F189        F  0.04455207  0.13558802  0.21522682    -0.19580
H190        H  0.03860157  0.13272538  0.28211273     0.18180
H191        H  0.44038347  0.08048595  0.21759314     0.18190
F192        F  0.43432142  0.07788317  0.28495659    -0.19570
C193        C  0.01063149  0.21466250  0.38482653    -0.21010
C194        C  0.48015633  0.19644352  0.37715432    -0.09050
C195        C  0.44924005  0.21474125  0.37156665     0.29810
C196        C  0.44935608  0.25096205  0.37128834    -0.21010
C197        C  0.48026782  0.26919872  0.37663971    -0.09060
C198        C  0.01074178  0.25096861  0.38455424     0.29820
F199        F  0.04102660  0.26819746  0.38911112    -0.19580
H200        H  0.03473085  0.20078759  0.38864893     0.18180
H201        H  0.42578497  0.26479410  0.36485814     0.18190
F202        F  0.41955368  0.19752182  0.36394979    -0.19570
C203        C  0.25204052  0.44813703  0.13323409    -0.21010
C204        C  0.27009236  0.47737714  0.12154900    -0.09050
C205        C  0.25165140  0.00529089  0.10698311     0.29810
C206        C  0.21534619  0.00505390  0.10707911    -0.21010
C207        C  0.19739384  0.47698507  0.12169877    -0.09060
C208        C  0.21599494  0.44782906  0.13322390     0.29820
F209        F  0.19920336  0.42009444  0.14686322    -0.19580
H210        H  0.26593156  0.42642937  0.14446859     0.18180
H211        H  0.20137042  0.02777661  0.09822697     0.18190
F212        F  0.26862890  0.03394286  0.09569195    -0.19570
C213        C  0.08957899  0.50072182  0.26840460    -0.21010
C214        C  0.10887793  0.47580309  0.28676326    -0.09050
C215        C  0.12554598  0.44917027  0.26834975     0.29810
C216        C  0.12540370  0.44917123  0.23225486    -0.21010
C217        C  0.10890227  0.47581227  0.21369233    -0.09060
C218        C  0.08956664  0.50080195  0.23196232     0.29820
F219        F  0.07322535  0.02684807  0.21479598    -0.19580
H220        H  0.07661988  0.02146871  0.28220153     0.18180
H221        H  0.13996872  0.42935522  0.21868188     0.18190
F222        F  0.14381058  0.42429702  0.28534864    -0.19570
C223        C  0.37772691  0.46531721  0.26842080    -0.21010
C224        C  0.35732000  0.48935036  0.28670336    -0.09050
C225        C  0.34017454  0.51573587  0.26820394     0.29810
C226        C  0.34052783  0.51592537  0.23212453    -0.21010
C227        C  0.35813455  0.49005526  0.21365175    -0.09060
C228        C  0.37821642  0.46566956  0.23197870     0.29820
F229        F  0.39584440  0.44057321  0.21476100    -0.19580
H230        H  0.39128578  0.44491250  0.28219488     0.18180
H231        H  0.32536897  0.03526029  0.21845739     0.18190
F232        F  0.32132832  0.04022791  0.28505954    -0.19570
C233        C  0.25165238  0.01643549  0.36669652    -0.21010
C234        C  0.26936356  0.48708960  0.37894820    -0.09050
C235        C  0.25060534  0.45996043  0.39438767     0.29810
C236        C  0.21431008  0.46093846  0.39437285    -0.21010
C237        C  0.19672541  0.48892853  0.37897816    -0.09060
C238        C  0.21564904  0.01736857  0.36659260     0.29820
F239        F  0.19922673  0.04486717  0.35192888    -0.19580
H240        H  0.26577796  0.03765432  0.35494342     0.18180
H241        H  0.20000105  0.43873743  0.40385941     0.18190
F242        F  0.26713920  0.43129317  0.40643491    -0.19570
C243        C  0.10361177  0.21516095  0.47011203    -0.21010
C244        C  0.10852079  0.19663344  0.00102937    -0.09050
C245        C  0.11179190  0.21476215  0.03246047     0.29810
C246        C  0.11196006  0.25106029  0.03263224    -0.21010
C247        C  0.10887687  0.26959629  0.00148821    -0.09060
C248        C  0.10385818  0.25149239  0.47027722     0.29820
F249        F  0.10167069  0.26891631  0.43977731    -0.19580
H250        H  0.10161962  0.20147759  0.44564263     0.18180
H251        H  0.11634606  0.26472660  0.05679988     0.18190
F252        F  0.11696244  0.19732587  0.06260608    -0.19570
C253        C  0.21547615  0.10336537  0.02650154    -0.21010
C254        C  0.19631576  0.10353150  0.49563244    -0.09050
C255        C  0.21340072  0.09994248  0.46372836     0.29810
C256        C  0.24959542  0.09912635  0.46269788    -0.21010
C257        C  0.26879348  0.10156166  0.49350857    -0.09060
C258        C  0.25155079  0.10229911  0.02549657     0.29820
F259        F  0.26972910  0.10514743  0.05552703    -0.19580
H260        H  0.20255359  0.10633053  0.05122362     0.18180
H261        H  0.26262422  0.09909878  0.43786280     0.18190
F262        F  0.19518653  0.10008842  0.43359237    -0.19570
C263        C  0.21516670  0.36627714  0.03010672    -0.21010
C264        C  0.19684853  0.36243617  0.99893404    -0.09050
C265        C  0.21482333  0.36227011  0.46736124     0.29810
C266        C  0.25097214  0.36296590  0.46723442    -0.21010
C267        C  0.26935871  0.36396037  0.99855974    -0.09060
C268        C  0.25131733  0.36706678  0.02997248     0.29820
F269        F  0.26870445  0.36773397  0.06059176    -0.19580
H270        H  0.20155227  0.36625092  0.05462761     0.18180
H271        H  0.26463094  0.36011101  0.44290479     0.18190
F272        F  0.19746070  0.35862232  0.43694415    -0.19570
C273        C  0.37785135  0.21462196  0.98458407    -0.21010
C274        C  0.35358793  0.19589807  0.50430658    -0.09050
C275        C  0.33233420  0.21402891  0.52770835     0.29810
C276        C  0.33309428  0.25008886  0.52904008    -0.21010
C277        C  0.35467709  0.26917421  0.50688298    -0.09060
C278        C  0.37846269  0.25111219  0.98581985     0.29820
F279        F  0.40027635  0.26857430  0.96456089    -0.19580
H280        H  0.39468189  0.20116180  0.96662916     0.18180
H281        H  0.31536935  0.26328420  0.54633332     0.18190
F282        F  0.30955615  0.19690585  0.54828588    -0.19570
C283        C  0.36749556  0.36764869  0.00051230     0.03430
C284        C  0.33259160  0.37831989  0.49893518    -0.12720
C285        C  0.30602741  0.35384594  0.49903205     0.00930
C286        C  0.31398342  0.31860390  0.50066383    -0.11250
C287        C  0.34838901  0.30709635  0.00316388     0.03420
C288        C  0.37520585  0.33179944  0.00274150    -0.10670
H289        H  0.32583782  0.40558729  0.49768491     0.09020
H290        H  0.29297946  0.29995787  0.50030263     0.06540
H291        H  0.40179212  0.32317406  0.00489803     0.06390
C292        C  0.36682580  0.09781682  0.99695409     0.03430
C293        C  0.33199997  0.08716063  0.99393365    -0.12720
C294        C  0.30545576  0.11170622  0.99237754     0.00930
C295        C  0.31339083  0.14696507  0.99369094    -0.11250
C296        C  0.34750985  0.15832883  0.99833962     0.03420
C297        C  0.37437199  0.13368647  0.99914899    -0.10670
H298        H  0.32528371  0.05987402  0.99330183     0.09020
H299        H  0.29247155  0.16571416  0.99253413     0.06540
H300        H  0.40078587  0.14240714  0.00263270     0.06390
C301        C  0.09836265  0.09852413  0.99803336     0.03430
C302        C  0.13344853  0.08852820  0.99650679    -0.12720
C303        C  0.15959791  0.11354658  0.99667802     0.00930
C304        C  0.15096711  0.14874687  0.99840977    -0.11250
C305        C  0.11633612  0.15922322  0.99961770     0.03420
C306        C  0.09002620  0.13418835  0.99934787    -0.10670
H307        H  0.14064702  0.06136788  0.99538580     0.09020
H308        H  0.17132117  0.16810950  0.99866272     0.06540
H309        H  0.06329511  0.14258572  0.00043177     0.06390
C310        C  0.09894986  0.36778264  0.50063322     0.03430
C311        C  0.13404844  0.37772873  0.50009385    -0.12720
C312        C  0.16016458  0.35263175  0.49986654     0.00930
C313        C  0.15150044  0.31741460  0.50046112    -0.11250
C314        C  0.11685797  0.30700261  0.50101254     0.03420
C315        C  0.09058060  0.33211081  0.50097143    -0.10670
H316        H  0.14126668  0.40489142  0.49969243     0.09020
H317        H  0.17183767  0.29800007  0.50036269     0.06540
H318        H  0.06383194  0.32374565  0.50132353     0.06390
C319        C  0.36742325  0.48060325  0.88484353     0.03430
C320        C  0.33224974  0.48076781  0.89473735    -0.12720
C321        C  0.30616432  0.48303651  0.86964696     0.00930
C322        C  0.31508793  0.48419011  0.83459177    -0.11250
C323        C  0.34970811  0.48460574  0.82406991     0.03420
C324        C  0.37590104  0.48220003  0.84922103    -0.10670
H325        H  0.32502684  0.48039050  0.92185751     0.09020
H326        H  0.29470653  0.48562240  0.81525742     0.06540
H327        H  0.40268219  0.48286171  0.84104404     0.06390
C328        C  0.09864501  0.48339087  0.88486446     0.03430
C329        C  0.13378620  0.48548022  0.89477593    -0.12720
C330        C  0.15981805  0.48581074  0.86967378     0.00930
C331        C  0.15095088  0.48316966  0.83462834    -0.11250
C332        C  0.11638169  0.48024372  0.82416144     0.03420
C333        C  0.09016891  0.48099174  0.84925765    -0.10670
H334        H  0.14104787  0.48738817  0.92185996     0.09020
H335        H  0.17126468  0.48317132  0.81526907     0.06540
H336        H  0.06343823  0.47889191  0.84102045     0.06390
C337        C  0.09927476  0.48335076  0.61535834     0.03430
C338        C  0.09064158  0.48207763  0.65095339    -0.12720
C339        C  0.11668850  0.47960126  0.67625226     0.00930
C340        C  0.15136163  0.47907985  0.66587632    -0.11250
C341        C  0.16046115  0.48024088  0.63085668     0.03420
C342        C  0.13449974  0.48285830  0.60563691    -0.10670
H343        H  0.06382043  0.48189814  0.65901897     0.09020
H344        H  0.17162274  0.47735841  0.68531618     0.06540
H345        H  0.14184721  0.48340020  0.57855414     0.06390
C346        C  0.36811173  0.48376326  0.61539031     0.03430
C347        C  0.37670410  0.48586734  0.65098376    -0.12720
C348        C  0.35059188  0.48602650  0.67619377     0.00930
C349        C  0.31598071  0.48310174  0.66579116    -0.11250
C350        C  0.30700076  0.48085294  0.63075177     0.03420
C351        C  0.33295364  0.48155691  0.60557318    -0.10670
H352        H  0.40345269  0.48807022  0.65913221     0.09020
H353        H  0.29571902  0.48271993  0.68520056     0.06540
H354        H  0.32562322  0.47977985  0.57849907     0.06390
C355        C  0.48315539  0.09828959  0.88437600     0.03430
C356        C  0.48178885  0.13366314  0.89377243    -0.12720
C357        C  0.48199681  0.15941057  0.86826137     0.00930
C358        C  0.48411033  0.15009036  0.83335162    -0.11250
C359        C  0.48572683  0.11519022  0.82349928     0.03420
C360        C  0.48483393  0.08927754  0.84893614    -0.10670
H361        H  0.48036639  0.14134197  0.92076020     0.09020
H362        H  0.48454716  0.17019987  0.81367863     0.06540
H363        H  0.48617903  0.06232442  0.84103623     0.06390
C364        C  0.48268100  0.36728536  0.88463573     0.03430
C365        C  0.48193311  0.33184509  0.89372601    -0.12720
C366        C  0.48165402  0.30630020  0.86793753     0.00930
C367        C  0.48254903  0.31593132  0.83302545    -0.11250
C368        C  0.48360407  0.35091619  0.82359638     0.03420
C369        C  0.48345317  0.37657218  0.84926113    -0.10670
H370        H  0.48128999  0.32396868  0.92068085     0.09020
H371        H  0.48250532  0.29607626  0.81307302     0.06540
H372        H  0.48418175  0.40358767  0.84151935     0.06390
C373        C  0.48273549  0.09872189  0.61550682     0.03430
C374        C  0.48496741  0.08953863  0.65089067    -0.12720
C375        C  0.48578955  0.11529357  0.67648501     0.00930
C376        C  0.48330640  0.15018135  0.66690117    -0.11250
C377        C  0.48070371  0.15974968  0.63205805     0.03420
C378        C  0.48083976  0.13412938  0.60633801    -0.10670
H379        H  0.48675102  0.06257123  0.65863559     0.09020
H380        H  0.48347746  0.17011854  0.68677690     0.06540
H381        H  0.47893111  0.14188955  0.57940447     0.06390
C382        C  0.48459951  0.36771999  0.61579278     0.03430
C383        C  0.48548297  0.37710893  0.65114897    -0.12720
C384        C  0.48438577  0.35155882  0.67685411     0.00930
C385        C  0.48205450  0.31664380  0.66749694    -0.11250
C386        C  0.48099411  0.30681630  0.63260369     0.03420
C387        C  0.48275675  0.33225429  0.60676121    -0.10670
H388        H  0.48693073  0.40411790  0.65884069     0.09020
H389        H  0.48097522  0.29695494  0.68756352     0.06540
H390        H  0.48181247  0.32433468  0.57981746     0.06390
O391        O  0.38571570  0.42633047  0.00024325    -0.86190
O392        O  0.08111902  0.42672524  0.00060305    -0.86360
O393        O  0.48274496  0.38434189  0.94380208    -0.88020
O394        O  0.48433205  0.38456751  0.55663577    -0.86780
O395        O  0.48454286  0.42682694  0.59851765    -0.86370
O396        O  0.48293249  0.42637363  0.90174555    -0.87740
O397        O  0.03961241  0.38425276  0.00053716    -0.86220
O398        O  0.42714016  0.38373255  0.00037395    -0.85810
Zr399      Zr  0.48333003  0.41280724  0.00021677     2.84310
O400        O  0.01837838  0.44790393  0.53525289    -1.07780
O401        O  0.44831568  0.44759465  0.96498131    -1.08510
C402        C  0.39534065  0.39420125  0.00034647     1.06920
C403        C  0.07139758  0.39463103  0.00064882     1.06860
C404        C  0.48274849  0.39442068  0.91184396     1.09840
C405        C  0.48463540  0.39480009  0.58853974     1.07620
H406        H  0.03271550  0.43321310  0.95056938     0.33180
O407        O  0.01822405  0.44765201  0.96496596    -1.28730
H408        H  0.43412778  0.43336186  0.54993879     0.32840
O409        O  0.44850322  0.44774924  0.53541323    -1.30410
O410        O  0.08073268  0.03963724  0.99884409    -0.86180
O411        O  0.38526613  0.03914811  0.99894627    -0.87680
O412        O  0.03932946  0.48313424  0.90139786    -0.86260
O413        O  0.03994733  0.48352581  0.59861360    -0.86310
O414        O  0.42737451  0.48363829  0.59875908    -0.86020
O415        O  0.42676823  0.48138346  0.90145823    -0.85830
O416        O  0.48308558  0.08119039  0.94340463    -0.86200
O417        O  0.48241191  0.08159422  0.55635094    -0.85660
O418        O  0.48311376  0.03906223  0.90139175    -0.86720
O419        O  0.48305947  0.03958586  0.59843713    -0.85880
O420        O  0.08103552  0.48344396  0.94375407    -0.86280
O421        O  0.38523695  0.48104251  0.94378002    -0.86000
O422        O  0.38559411  0.48359379  0.55645773    -0.85650
O423        O  0.08151633  0.48356102  0.55633193    -0.86060
O424        O  0.03902500  0.08198140  0.99899843    -0.86360
O425        O  0.42646687  0.08191025  0.99911047    -0.87700
Zr426      Zr  0.05266836  0.48315477  0.00005436     2.83100
Zr427      Zr  0.41382770  0.48279547  0.00009114     2.83500
Zr428      Zr  0.48311003  0.48275451  0.93006468     2.84090
Zr429      Zr  0.48353824  0.48321460  0.57003477     2.83360
Zr430      Zr  0.48283932  0.05315284  0.99990357     2.84220
O431        O  0.44821518  0.01824052  0.53522543    -1.08270
O432        O  0.01788067  0.01818684  0.96489369    -1.07770
C433        C  0.07086827  0.07168937  0.99859729     1.06890
C434        C  0.39472916  0.07131923  0.99855777     1.09510
C435        C  0.07118265  0.48337078  0.91170536     1.07060
C436        C  0.07177528  0.48360059  0.58837576     1.07420
C437        C  0.39550727  0.48373752  0.58849353     1.07010
C438        C  0.39496602  0.48083502  0.91174018     1.06560
C439        C  0.48312832  0.07105423  0.91146728     1.06980
C440        C  0.48266423  0.07153838  0.58832317     1.06500
H441        H  0.43346884  0.03220792  0.95014787     0.33180
O442        O  0.44803845  0.01798283  0.96473120    -1.29370
H443        H  0.03266856  0.03307088  0.54944456     0.33200
O444        O  0.01819302  0.01850661  0.53510846    -1.30750
C445        C  0.44875852  0.21514912  0.63632720    -0.21010
C446        C  0.47740716  0.19686878  0.62361768    -0.09050
C447        C  0.00497993  0.21516053  0.60853495     0.29810
C448        C  0.00490469  0.25153644  0.60876000    -0.21010
C449        C  0.47741398  0.26969813  0.62412738    -0.09060
C450        C  0.44867551  0.25129603  0.63655802     0.29820
F451        F  0.42154883  0.26835310  0.65100656    -0.19580
H452        H  0.42736116  0.20133489  0.64803477     0.18180
H453        H  0.02733269  0.26542534  0.59929950     0.18190
F454        F  0.03318494  0.19796769  0.59653134    -0.19570
C455        C  0.45420786  0.36572790  0.76824202    -0.21010
C456        C  0.48501917  0.35983751  0.78658817    -0.09050
C457        C  0.01630436  0.35649603  0.76849636     0.29810
C458        C  0.01637511  0.35681504  0.73228922    -0.21010
C459        C  0.48526435  0.36042104  0.71389519    -0.09060
C460        C  0.45426504  0.36591616  0.73198374     0.29820
F461        F  0.42380856  0.36855241  0.71458995    -0.19580
H462        H  0.42986816  0.36783063  0.78195465     0.18180
H463        H  0.04033832  0.35203729  0.71857218     0.18190
F464        F  0.04631347  0.35048394  0.78584493    -0.19570
C465        C  0.01757898  0.12031078  0.76822600    -0.21010
C466        C  0.48921681  0.10686785  0.78636532    -0.09050
C467        C  0.46222064  0.09072725  0.76795064     0.29810
C468        C  0.46246529  0.09071662  0.73159523    -0.21010
C469        C  0.48957154  0.10683693  0.71356994    -0.09060
C470        C  0.01782830  0.12030160  0.73211875     0.29820
F471        F  0.04455171  0.13558432  0.71522157    -0.19580
H472        H  0.03860054  0.13273276  0.78210804     0.18180
H473        H  0.44038509  0.08047941  0.71759486     0.18190
F474        F  0.43432260  0.07788617  0.78495842    -0.19570
C475        C  0.01063417  0.21467423  0.88482213    -0.21010
C476        C  0.48015887  0.19645418  0.87714982    -0.09050
C477        C  0.44924088  0.21475075  0.87156817     0.29810
C478        C  0.44935453  0.25097149  0.87129618    -0.21010
C479        C  0.48026581  0.26920909  0.87664643    -0.09060
C480        C  0.01074218  0.25098036  0.88455530     0.29820
F481        F  0.04102656  0.26821051  0.88910980    -0.19580
H482        H  0.03473471  0.20080016  0.88863992     0.18180
H483        H  0.42578199  0.26480310  0.86487031     0.18190
F484        F  0.41955488  0.19753082  0.86395110    -0.19570
C485        C  0.25205412  0.44813245  0.63322646    -0.21010
C486        C  0.27010689  0.47737119  0.62153954    -0.09050
C487        C  0.25166581  0.00528844  0.60697933     0.29810
C488        C  0.21536063  0.00505546  0.60708163    -0.21010
C489        C  0.19740874  0.47698759  0.62170416    -0.09060
C490        C  0.21600862  0.44782910  0.63322463     0.29820
F491        F  0.19921670  0.42009598  0.64686647    -0.19580
H492        H  0.26594494  0.42642290  0.64445761     0.18180
H493        H  0.20138576  0.02777991  0.59823251     0.18190
F494        F  0.26864463  0.03393952  0.59568806    -0.19570
C495        C  0.08957326  0.50071762  0.76840458    -0.21010
C496        C  0.10886893  0.47579819  0.78676554    -0.09050
C497        C  0.12554246  0.44916764  0.76835360     0.29810
C498        C  0.12540942  0.44917217  0.73225866    -0.21010
C499        C  0.10891067  0.47581371  0.71369457    -0.09060
C500        C  0.08956928  0.50080072  0.73196234     0.29820
F501        F  0.07322965  0.02684743  0.71479417    -0.19580
H502        H  0.07661097  0.02146327  0.78219972     0.18180
H503        H  0.13997845  0.42935794  0.71868742     0.18190
F504        F  0.14380443  0.42429395  0.78535474    -0.19570
C505        C  0.37772297  0.46531693  0.76841794    -0.21010
C506        C  0.35731225  0.48935016  0.78669635    -0.09050
C507        C  0.34017030  0.51573529  0.76819333     0.29810
C508        C  0.34053212  0.51592538  0.73211398    -0.21010
C509        C  0.35814221  0.49005484  0.71364477    -0.09060
C510        C  0.37821983  0.46566892  0.73197591     0.29820
F511        F  0.39585027  0.44057172  0.71476190    -0.19580
H512        H  0.39127938  0.44491253  0.78219489     0.18180
H513        H  0.32537555  0.03525993  0.71844355     0.18190
F514        F  0.32131987  0.04022686  0.78504471    -0.19570
C515        C  0.25163583  0.01643379  0.86668699    -0.21010
C516        C  0.26934816  0.48708817  0.87893763    -0.09050
C517        C  0.25059226  0.45996031  0.89438264     0.29810
C518        C  0.21429690  0.46093896  0.89437468    -0.21010
C519        C  0.19670981  0.48892884  0.87898244    -0.09060
C520        C  0.21563255  0.01736797  0.86659099     0.29820
F521        F  0.19920784  0.04486635  0.85192952    -0.19580
H522        H  0.26575958  0.03765202  0.85493062     0.18180
H523        H  0.19998927  0.43873839  0.90386441     0.18190
F524        F  0.26712783  0.43129388  0.90642967    -0.19570
C525        C  0.10355769  0.21516331  0.97011121    -0.21010
C526        C  0.10857528  0.19662979  0.50102981    -0.09050
C527        C  0.11187077  0.21476091  0.53245750     0.29810
C528        C  0.11205249  0.25105975  0.53262674    -0.21010
C529        C  0.10895886  0.26959623  0.50148367    -0.09060
C530        C  0.10379021  0.25149395  0.97027900     0.29820
F531        F  0.10160954  0.26891938  0.93977948    -0.19580
H532        H  0.10158031  0.20148066  0.94564021     0.18180
H533        H  0.11644944  0.26472603  0.55679239     0.18190
F534        F  0.11704599  0.19732515  0.56260262    -0.19570
C535        C  0.21547885  0.10330142  0.52650302    -0.21010
C536        C  0.19631096  0.10358339  0.99563174    -0.09050
C537        C  0.21339843  0.10000868  0.96372715     0.29810
C538        C  0.24959407  0.09920700  0.96269616    -0.21010
C539        C  0.26879268  0.10164395  0.99350658    -0.09060
C540        C  0.25155231  0.10221902  0.52549866     0.29820
F541        F  0.26973140  0.10506450  0.55552891    -0.19580
H542        H  0.20255705  0.10627346  0.55122470     0.18180
H543        H  0.26262256  0.09918210  0.93786095     0.18190
F544        F  0.19518407  0.10014971  0.93359126    -0.19570
C545        C  0.21517886  0.36635986  0.53012451    -0.21010
C546        C  0.19686985  0.36250451  0.49894847    -0.09050
C547        C  0.21479981  0.36217370  0.96734499     0.29810
C548        C  0.25095031  0.36285667  0.96721225    -0.21010
C549        C  0.26937345  0.36405724  0.49858583    -0.09060
C550        C  0.25132838  0.36716746  0.52999584     0.29820
F551        F  0.26871104  0.36784687  0.56061745    -0.19580
H552        H  0.20156021  0.36632573  0.55464304     0.18180
H553        H  0.26460454  0.35999502  0.94288084     0.18190
F554        F  0.19743120  0.35851980  0.93693194    -0.19570
C555        C  0.37778223  0.21460929  0.48457864    -0.21010
C556        C  0.35366284  0.19591446  0.00432289    -0.09050
C557        C  0.33244253  0.21404022  0.02775665     0.29810
C558        C  0.33320849  0.25009802  0.02909423    -0.21010
C559        C  0.35476491  0.26918124  0.00691171    -0.09060
C560        C  0.37838470  0.25110079  0.48580532     0.29820
F561        F  0.40020692  0.26855980  0.46455324    -0.19580
H562        H  0.39463083  0.20114905  0.46664093     0.18180
H563        H  0.31549634  0.26329457  0.04639988     0.18190
F564        F  0.30968054  0.19691473  0.04834953    -0.19570
C565        C  0.36750900  0.86764024  0.50051411     0.03430
C566        C  0.33256826  0.87829422  0.99891700    -0.12720
C567        C  0.30602734  0.85379041  0.99900251     0.00930
C568        C  0.31402177  0.81855765  0.00064335    -0.11250
C569        C  0.34834042  0.80710280  0.50316103     0.03420
C570        C  0.37518436  0.83178144  0.50273234    -0.10670
H571        H  0.32579030  0.90555539  0.99766367     0.09020
H572        H  0.29303950  0.79988686  0.00028147     0.06540
H573        H  0.40176372  0.82313163  0.50487385     0.06390
C574        C  0.36682599  0.59779658  0.49696751     0.03430
C575        C  0.33200740  0.58711855  0.49394477    -0.12720
C576        C  0.30544888  0.61164597  0.49237959     0.00930
C577        C  0.31335894  0.64691021  0.49368566    -0.11250
C578        C  0.34746761  0.65830053  0.49834166     0.03420
C579        C  0.37434809  0.63367369  0.49916112    -0.10670
H580        H  0.32530686  0.55982794  0.49331570     0.09020
H581        H  0.29242605  0.66564311  0.49251486     0.06540
H582        H  0.40075617  0.64241098  0.50264636     0.06390
C583        C  0.09836974  0.59851978  0.49803278     0.03430
C584        C  0.13345078  0.58851006  0.49650529    -0.12720
C585        C  0.15960978  0.61351576  0.49667767     0.00930
C586        C  0.15099590  0.64872003  0.49841094    -0.11250
C587        C  0.11636970  0.65921327  0.49961853     0.03420
C588        C  0.09004761  0.63418845  0.49934788    -0.10670
H589        H  0.14063936  0.56134708  0.49538333     0.09020
H590        H  0.17135955  0.66807251  0.49866476     0.06540
H591        H  0.06331974  0.64259586  0.50043190     0.06390
C592        C  0.09892572  0.86778447  0.00063749     0.03430
C593        C  0.13403180  0.87770972  0.00009152    -0.12720
C594        C  0.16013396  0.85259449  0.99985998     0.00930
C595        C  0.15144586  0.81738420  0.00045807    -0.11250
C596        C  0.11679746  0.80699548  0.00101749     0.03420
C597        C  0.09053591  0.83211811  0.00098032    -0.10670
H598        H  0.14126511  0.90486820  0.99968687     0.09020
H599        H  0.17176988  0.79795567  0.00035599     0.06540
H600        H  0.06378274  0.82376750  0.00133728     0.06390
C601        C  0.36743862  0.98059361  0.38484904     0.03430
C602        C  0.33226570  0.98076163  0.39474546    -0.12720
C603        C  0.30617908  0.98303531  0.36965691     0.00930
C604        C  0.31510051  0.98418949  0.33460153    -0.11250
C605        C  0.34971970  0.98460326  0.32407724     0.03420
C606        C  0.37591428  0.98219258  0.34922612    -0.10670
H607        H  0.32504439  0.98038327  0.42186604     0.09020
H608        H  0.29471784  0.98562414  0.31526866     0.06540
H609        H  0.40269492  0.98285243  0.34104731     0.06390
C610        C  0.09866190  0.98338980  0.38486344     0.03430
C611        C  0.13380328  0.98547944  0.39477291    -0.12720
C612        C  0.15983373  0.98581256  0.36966935     0.00930
C613        C  0.15096488  0.98317408  0.33462383    -0.11250
C614        C  0.11639486  0.98024818  0.32415892     0.03420
C615        C  0.09018386  0.98099344  0.34925693    -0.10670
H616        H  0.14106625  0.98738499  0.42185677     0.09020
H617        H  0.17127753  0.98317682  0.31526340     0.06540
H618        H  0.06345277  0.97889314  0.34102116     0.06390
C619        C  0.09925988  0.98335110  0.11535763     0.03430
C620        C  0.09062856  0.98207693  0.15095301    -0.12720
C621        C  0.11667708  0.97959881  0.17625001     0.00930
C622        C  0.15134937  0.97907684  0.16587209    -0.11250
C623        C  0.16044719  0.98023753  0.13085229     0.03420
C624        C  0.13448453  0.98285669  0.10563402    -0.10670
H625        H  0.06380787  0.98189870  0.15902016     0.09020
H626        H  0.17161151  0.97735547  0.18531091     0.06540
H627        H  0.14183075  0.98339931  0.07855093     0.06390
C628        C  0.36809668  0.98378377  0.11539581     0.03430
C629        C  0.37669129  0.98588157  0.15098906    -0.12720
C630        C  0.35058114  0.98603073  0.17620119     0.00930
C631        C  0.31596943  0.98310232  0.16580083    -0.11250
C632        C  0.30698713  0.98086108  0.13076124     0.03420
C633        C  0.33293823  0.98157562  0.10558095    -0.10670
H634        H  0.40344017  0.98808639  0.15913602     0.09020
H635        H  0.29570948  0.98271330  0.18521188     0.06540
H636        H  0.32560627  0.97980365  0.07850693     0.06390
C637        C  0.48315905  0.59827799  0.38437679     0.03430
C638        C  0.48179012  0.63365124  0.39377491    -0.12720
C639        C  0.48199447  0.65939983  0.36826493     0.00930
C640        C  0.48410688  0.65008104  0.33335485    -0.11250
C641        C  0.48572617  0.61518160  0.32350092     0.03420
C642        C  0.48483668  0.58926758  0.34893651    -0.10670
H643        H  0.48036891  0.64132894  0.42076307     0.09020
H644        H  0.48454160  0.67019138  0.31368262     0.06540
H645        H  0.48618384  0.56231492  0.34103534     0.06390
C646        C  0.48270315  0.86727485  0.38463071     0.03430
C647        C  0.48195122  0.83183424  0.39371957    -0.12720
C648        C  0.48165878  0.80629012  0.36793017     0.00930
C649        C  0.48254543  0.81592261  0.33301802    -0.11250
C650        C  0.48360768  0.85090780  0.32359033     0.03420
C651        C  0.48347000  0.87656272  0.34925631    -0.10670
H652        H  0.48131340  0.82395699  0.42067430     0.09020
H653        H  0.48249205  0.79606849  0.31306468     0.06540
H654        H  0.48420308  0.90357837  0.34151552     0.06390
C655        C  0.48273136  0.59873363  0.11550681     0.03430
C656        C  0.48496373  0.58954882  0.15089045    -0.12720
C657        C  0.48578981  0.61530245  0.17648613     0.00930
C658        C  0.48331035  0.65019099  0.16690367    -0.11250
C659        C  0.48070704  0.65976076  0.13206077     0.03420
C660        C  0.48083919  0.63414147  0.10633964    -0.10670
H661        H  0.48674429  0.56258091  0.15863426     0.09020
H662        H  0.48348365  0.67012744  0.18678012     0.06540
H663        H  0.47892963  0.64190271  0.07940647     0.06390
C664        C  0.48457872  0.86773224  0.11578843     0.03430
C665        C  0.48546684  0.87711967  0.15114478    -0.12720
C666        C  0.48438217  0.85156777  0.17684851     0.00930
C667        C  0.48205813  0.81665284  0.16749000    -0.11250
C668        C  0.48099033  0.80682709  0.13259672     0.03420
C669        C  0.48274056  0.83226665  0.10675512    -0.10670
H670        H  0.48690979  0.90412855  0.15883769     0.09020
H671        H  0.48098768  0.79696261  0.18755576     0.06540
H672        H  0.48179144  0.82434817  0.07981118     0.06390
O673        O  0.38575615  0.92630897  0.50023968    -0.86190
O674        O  0.08112836  0.92671460  0.50060133    -0.86360
O675        O  0.48277156  0.88432970  0.44379801    -0.88020
O676        O  0.48430591  0.88458159  0.05663301    -0.86780
O677        O  0.48451946  0.92683992  0.09851587    -0.86370
O678        O  0.48295620  0.92636302  0.40174288    -0.87740
O679        O  0.03963223  0.88423168  0.50053318    -0.86220
O680        O  0.42716740  0.88369884  0.50037210    -0.85810
Zr681      Zr  0.48335123  0.91279112  0.50021565     2.84310
O682        O  0.01836107  0.94791734  0.03525443    -1.07780
O683        O  0.44833698  0.94757991  0.46498040    -1.08510
C684        C  0.39537075  0.89417664  0.50034424     1.06920
C685        C  0.07141429  0.89461796  0.50064530     1.06860
C686        C  0.48277403  0.89440956  0.41184011     1.09840
C687        C  0.48461061  0.89481333  0.08853698     1.07620
H688        H  0.03273629  0.93320255  0.45056905     0.33180
O689        O  0.01824310  0.94763910  0.46496617    -1.28730
H690        H  0.43410561  0.93338010  0.04993978     0.32840
O691        O  0.44848137  0.94776693  0.03541401    -1.30410
O692        O  0.08073256  0.53963641  0.49884342    -0.86180
O693        O  0.38528821  0.53913377  0.49895523    -0.87680
O694        O  0.03934769  0.98312695  0.40139854    -0.86260
O695        O  0.03993125  0.98353346  0.09861468    -0.86310
O696        O  0.42735833  0.98365860  0.09876171    -0.86020
O697        O  0.42678469  0.98136973  0.40146044    -0.85830
O698        O  0.48309060  0.58117754  0.44340431    -0.86200
O699        O  0.48240263  0.58160601  0.05634947    -0.85660
O700        O  0.48312601  0.53904969  0.40139108    -0.86720
O701        O  0.48304809  0.53959843  0.09843633    -0.85880
O702        O  0.08105398  0.98343895  0.44375449    -0.86280
O703        O  0.38525522  0.98102930  0.44378391    -0.86000
O704        O  0.38557648  0.98361852  0.05646166    -0.85650
O705        O  0.08150019  0.98356512  0.05633285    -0.86060
O706        O  0.03902796  0.58198368  0.49899949    -0.86360
O707        O  0.42647660  0.58190720  0.49911835    -0.87700
Zr708      Zr  0.05268367  0.98314628  0.50005414     2.83100
Zr709      Zr  0.41385106  0.98278084  0.50009111     2.83500
Zr710      Zr  0.48312794  0.98274352  0.43006432     2.84090
Zr711      Zr  0.48352037  0.98322880  0.07003505     2.83360
Zr712      Zr  0.48284789  0.55314330  0.49990429     2.84220
O713        O  0.44819744  0.51825318  0.03522467    -1.08270
O714        O  0.01789147  0.51817813  0.46489475    -1.07770
C715        C  0.07087038  0.57168961  0.49859733     1.06890
C716        C  0.39474147  0.57130850  0.49856854     1.09510
C717        C  0.07120084  0.98336606  0.41170567     1.07060
C718        C  0.07175925  0.98360484  0.08837647     1.07420
C719        C  0.39549082  0.98376057  0.08849731     1.07010
C720        C  0.39498287  0.98082215  0.41174383     1.06560
C721        C  0.48313562  0.57104165  0.41146701     1.06980
C722        C  0.48265556  0.57155075  0.08832216     1.06500
H723        H  0.43348165  0.53219269  0.45014801     0.33180
O724        O  0.44805383  0.51796905  0.46473037    -1.29370
H725        H  0.03265453  0.53308105  0.04944446     0.33200
O726        O  0.01817852  0.51851705  0.03510857    -1.30750
C727        C  0.44876099  0.71515967  0.13632955    -0.21010
C728        C  0.47741033  0.69687989  0.12362100    -0.09050
C729        C  0.00498095  0.71517234  0.10853513     0.29810
C730        C  0.00490315  0.75154823  0.10875499    -0.21010
C731        C  0.47741168  0.76970901  0.12412084    -0.09060
C732        C  0.44867514  0.75130650  0.13655508     0.29820
F733        F  0.42154819  0.76836364  0.15100310    -0.19580
H734        H  0.42736494  0.70134540  0.14803946     0.18180
H735        H  0.02732997  0.76543751  0.09929223     0.18190
F736        F  0.03318640  0.69797965  0.09653235    -0.19570
C737        C  0.45420761  0.86572304  0.26823840    -0.21010
C738        C  0.48501993  0.85983129  0.28658248    -0.09050
C739        C  0.01630476  0.85649483  0.26848857     0.29810
C740        C  0.01637441  0.85682014  0.23228159    -0.21010
C741        C  0.48526263  0.86042747  0.21388981    -0.09060
C742        C  0.45426369  0.86591810  0.23198017     0.29820
F743        F  0.42380662  0.86855574  0.21458756    -0.19580
H744        H  0.42986833  0.86782255  0.28195223     0.18180
H745        H  0.04033734  0.85204552  0.21856297     0.18190
F746        F  0.04631475  0.85048154  0.28583515    -0.19570
C747        C  0.01757958  0.62030620  0.26822890    -0.21010
C748        C  0.48921668  0.60686218  0.28636647    -0.09050
C749        C  0.46221970  0.59072555  0.26794965     0.29810
C750        C  0.46246401  0.59072052  0.23159417    -0.21010
C751        C  0.48957056  0.60684288  0.21357089    -0.09060
C752        C  0.01782818  0.62030358  0.23212164     0.29820
F753        F  0.04455224  0.63558772  0.21522685    -0.19580
H754        H  0.03860171  0.63272518  0.28211276     0.18180
H755        H  0.44038350  0.58048579  0.21759249     0.18190
F756        F  0.43432140  0.57788299  0.28495595    -0.19570
C757        C  0.01063153  0.71466247  0.38482653    -0.21010
C758        C  0.48015634  0.69644350  0.37715384    -0.09050
C759        C  0.44924007  0.71474124  0.37156614     0.29810
C760        C  0.44935610  0.75096204  0.37128780    -0.21010
C761        C  0.48026784  0.76919872  0.37663918    -0.09060
C762        C  0.01074180  0.75096858  0.38455431     0.29820
F763        F  0.04102663  0.76819743  0.38911117    -0.19580
H764        H  0.03473089  0.70078755  0.38864888     0.18180
H765        H  0.42578500  0.76479409  0.36485758     0.18190
F766        F  0.41955369  0.69752180  0.36394932    -0.19570
C767        C  0.25204156  0.94813683  0.13323423    -0.21010
C768        C  0.27009319  0.97737703  0.12154903    -0.09050
C769        C  0.25165070  0.50529101  0.10698288     0.29810
C770        C  0.21534543  0.50505405  0.10707846    -0.21010
C771        C  0.19739487  0.97698490  0.12169966    -0.09060
C772        C  0.21599602  0.94782884  0.13322448     0.29820
F773        F  0.19920455  0.92009419  0.14686387    -0.19580
H774        H  0.26593275  0.92642917  0.14446855     0.18180
H775        H  0.20136981  0.52777679  0.09822617     0.18190
F776        F  0.26862836  0.53394292  0.09569181    -0.19570
C777        C  0.08957930  0.00072160  0.26840496    -0.21010
C778        C  0.10887809  0.97580286  0.28676374    -0.09050
C779        C  0.12554618  0.94916996  0.26835041     0.29810
C780        C  0.12540420  0.94917092  0.23225554    -0.21010
C781        C  0.10890298  0.97581200  0.21369292    -0.09060
C782        C  0.08956720  0.00080170  0.23196270     0.29820
F783        F  0.07322465  0.52684834  0.21479575    -0.19580
H784        H  0.07661961  0.52146888  0.28220127     0.18180
H785        H  0.13996929  0.92935488  0.21868267     0.18190
F786        F  0.14381062  0.92429670  0.28534945    -0.19570
C787        C  0.37772697  0.96531721  0.26842084    -0.21010
C788        C  0.35732000  0.98935031  0.28670341    -0.09050
C789        C  0.34017458  0.01573587  0.26820401     0.29810
C790        C  0.34052807  0.01592553  0.23212461    -0.21010
C791        C  0.35813494  0.99005554  0.21365181    -0.09060
C792        C  0.37821665  0.96566971  0.23197874     0.29820
F793        F  0.39584463  0.94057339  0.21476100    -0.19580
H794        H  0.39128578  0.94491244  0.28219490     0.18180
H795        H  0.32536870  0.53526011  0.21845731     0.18190
F796        F  0.32132838  0.54022799  0.28505946    -0.19570
C797        C  0.25165233  0.51643550  0.36669637    -0.21010
C798        C  0.26936361  0.98708957  0.37894831    -0.09050
C799        C  0.25060540  0.95996044  0.39438786     0.29810
C800        C  0.21431014  0.96093853  0.39437318    -0.21010
C801        C  0.19672546  0.98892862  0.37897855    -0.09060
C802        C  0.21564899  0.51736852  0.36659231     0.29820
F803        F  0.19922668  0.54486713  0.35192860    -0.19580
H804        H  0.26577792  0.53765437  0.35494334     0.18180
H805        H  0.20000112  0.93873752  0.40385979     0.18190
F806        F  0.26713925  0.93129315  0.40643505    -0.19570
C807        C  0.10361177  0.71516099  0.47011201    -0.21010
C808        C  0.10851922  0.69663320  0.00102949    -0.09050
C809        C  0.11179132  0.71476173  0.03246056     0.29810
C810        C  0.11196058  0.75105981  0.03263231    -0.21010
C811        C  0.10887756  0.76959577  0.00148828    -0.09060
C812        C  0.10385817  0.75149242  0.47027719     0.29820
F813        F  0.10167073  0.76891634  0.43977728    -0.19580
H814        H  0.10161967  0.70147762  0.44564261     0.18180
H815        H  0.11634723  0.76472602  0.05679988     0.18190
F816        F  0.11696180  0.69732529  0.06260608    -0.19570
C817        C  0.21547327  0.60336465  0.02650161    -0.21010
C818        C  0.19631575  0.60353158  0.49563248    -0.09050
C819        C  0.21340072  0.59994255  0.46372841     0.29810
C820        C  0.24959542  0.59912641  0.46269795    -0.21010
C821        C  0.26879345  0.60156172  0.49350865    -0.09060
C822        C  0.25154800  0.60229894  0.02549676     0.29820
F823        F  0.26972616  0.60514746  0.05552727    -0.19580
H824        H  0.20255064  0.60632975  0.05122365     0.18180
H825        H  0.26262424  0.59909884  0.43786288     0.18190
F826        F  0.19518655  0.60008848  0.43359241    -0.19570
C827        C  0.21516775  0.86627632  0.03010692    -0.21010
C828        C  0.19684969  0.86243521  0.99893422    -0.09050
C829        C  0.21482328  0.86227006  0.46736116     0.29810
C830        C  0.25097210  0.86296583  0.46723434    -0.21010
C831        C  0.26935970  0.86396043  0.99855989    -0.09060
C832        C  0.25131834  0.86706649  0.02997266     0.29820
F833        F  0.26870547  0.86773379  0.06059193    -0.19580
H834        H  0.20155332  0.86624985  0.05462780     0.18180
H835        H  0.26463089  0.86011089  0.44290470     0.18190
F836        F  0.19746064  0.85862223  0.43694409    -0.19570
C837        C  0.37785104  0.71462098  0.98458394    -0.21010
C838        C  0.35358792  0.69589812  0.50430664    -0.09050
C839        C  0.33233429  0.71402896  0.52770848     0.29810
C840        C  0.33309437  0.75008891  0.52904018    -0.21010
C841        C  0.35467708  0.76917423  0.50688296    -0.09060
C842        C  0.37846308  0.75111136  0.98581979     0.29820
F843        F  0.40027734  0.76857309  0.96456114    -0.19580
H844        H  0.39468152  0.70116054  0.96662920     0.18180
H845        H  0.31536950  0.76328426  0.54633347     0.18190
F846        F  0.30955633  0.69690590  0.54828612    -0.19570
C847        C  0.36749633  0.86764935  0.00051237     0.03430
C848        C  0.33259158  0.87831986  0.49893508    -0.12720
C849        C  0.30602738  0.85384591  0.49903197     0.00930
C850        C  0.31398339  0.81860387  0.50066379    -0.11250
C851        C  0.34839002  0.80709648  0.00316361     0.03420
C852        C  0.37520680  0.83179987  0.00274126    -0.10670
H853        H  0.32583780  0.90558726  0.49768479     0.09020
H854        H  0.29297943  0.79995783  0.50030262     0.06540
H855        H  0.40179311  0.82317460  0.00489758     0.06390
C856        C  0.36682335  0.59781508  0.99695417     0.03430
C857        C  0.33199732  0.58715954  0.99393397    -0.12720
C858        C  0.30545345  0.61170564  0.99237795     0.00930
C859        C  0.31338916  0.64696444  0.99369124    -0.11250
C860        C  0.34750843  0.65832781  0.99833955     0.03420
C861        C  0.37437013  0.63368480  0.99914885    -0.10670
H862        H  0.32528069  0.55987302  0.99330223     0.09020
H863        H  0.29247016  0.66571383  0.99253445     0.06540
H864        H  0.40078419  0.64240503  0.00263229     0.06390
C865        C  0.09835911  0.59852448  0.99803291     0.03430
C866        C  0.13344498  0.58852789  0.99650641    -0.12720
C867        C  0.15959492  0.61354578  0.99667793     0.00930
C868        C  0.15096461  0.64874612  0.99840987    -0.11250
C869        C  0.11633378  0.65922299  0.99961768     0.03420
C870        C  0.09002334  0.63418874  0.99934757    -0.10670
H871        H  0.14064303  0.56136747  0.99538531     0.09020
H872        H  0.17131897  0.66810845  0.99866304     0.06540
H873        H  0.06329240  0.64258659  0.00043142     0.06390
C874        C  0.09894978  0.86778269  0.50063324     0.03430
C875        C  0.13404837  0.87772878  0.50009383    -0.12720
C876        C  0.16016451  0.85263180  0.49986649     0.00930
C877        C  0.15150037  0.81741464  0.50046106    -0.11250
C878        C  0.11685791  0.80700266  0.50101252     0.03420
C879        C  0.09058053  0.83211086  0.50097144    -0.10670
H880        H  0.14126661  0.90489147  0.49969241     0.09020
H881        H  0.17183760  0.79800012  0.50036260     0.06540
H882        H  0.06383187  0.82374569  0.50132358     0.06390
C883        C  0.36742371  0.98060508  0.88484358     0.03430
C884        C  0.33225026  0.98076928  0.89473742    -0.12720
C885        C  0.30616486  0.98303700  0.86964699     0.00930
C886        C  0.31508836  0.98418998  0.83459177    -0.11250
C887        C  0.34970850  0.98460609  0.82406988     0.03420
C888        C  0.37590148  0.98220133  0.84922104    -0.10670
H889        H  0.32502736  0.98039240  0.92185759     0.09020
H890        H  0.29470691  0.98562164  0.81525742     0.06540
H891        H  0.40268261  0.98286333  0.84104402     0.06390
C892        C  0.09864639  0.98339003  0.88486396     0.03430
C893        C  0.13378753  0.98547965  0.89477519    -0.12720
C894        C  0.15981908  0.98581068  0.86967287     0.00930
C895        C  0.15095177  0.98316981  0.83462746    -0.11250
C896        C  0.11638253  0.98024356  0.82416083     0.03420
C897        C  0.09016998  0.98099107  0.84925722    -0.10670
H898        H  0.14104940  0.98738747  0.92185918     0.09020
H899        H  0.17126543  0.98317178  0.81526806     0.06540
H900        H  0.06343925  0.97889101  0.84102022     0.06390
C901        C  0.09927481  0.98335079  0.61535810     0.03430
C902        C  0.09064166  0.98207761  0.65095313    -0.12720
C903        C  0.11668859  0.97960122  0.67625194     0.00930
C904        C  0.15136171  0.97907988  0.66587600    -0.11250
C905        C  0.16046121  0.98024093  0.63085637     0.03420
C906        C  0.13449978  0.98285835  0.60563662    -0.10670
H907        H  0.06382052  0.98189808  0.65901874     0.09020
H908        H  0.17162282  0.97735843  0.68531586     0.06540
H909        H  0.14184723  0.98340027  0.57855385     0.06390
C910        C  0.36811179  0.98376320  0.61539027     0.03430
C911        C  0.37670412  0.98586727  0.65098372    -0.12720
C912        C  0.35059188  0.98602644  0.67619371     0.00930
C913        C  0.31598072  0.98310170  0.66579107    -0.11250
C914        C  0.30700080  0.98085293  0.63075168     0.03420
C915        C  0.33295371  0.98155688  0.60557311    -0.10670
H916        H  0.40345270  0.98807014  0.65913220     0.09020
H917        H  0.29571901  0.98271989  0.68520045     0.06540
H918        H  0.32562330  0.97977983  0.57849899     0.06390
C919        C  0.48315486  0.59828868  0.88437696     0.03430
C920        C  0.48178870  0.63366226  0.89377371    -0.12720
C921        C  0.48199719  0.65941004  0.86826288     0.00930
C922        C  0.48411086  0.65009003  0.83335306    -0.11250
C923        C  0.48572693  0.61518995  0.82350036     0.03420
C924        C  0.48483355  0.58927703  0.84893699    -0.10670
H925        H  0.48036611  0.64134081  0.92076156     0.09020
H926        H  0.48454798  0.67019971  0.81368023     0.06540
H927        H  0.48617829  0.56232396  0.84103681     0.06390
C928        C  0.48268054  0.86728585  0.88463645     0.03430
C929        C  0.48193275  0.83184554  0.89372696    -0.12720
C930        C  0.48165387  0.80630033  0.86793865     0.00930
C931        C  0.48254901  0.81593131  0.83302649    -0.11250
C932        C  0.48360389  0.85091616  0.82359717     0.03420
C933        C  0.48345276  0.87657235  0.84926176    -0.10670
H934        H  0.48128961  0.82396934  0.92068187     0.09020
H935        H  0.48250548  0.79607614  0.81307418     0.06540
H936        H  0.48418124  0.90358779  0.84151979     0.06390
C937        C  0.48273552  0.59872181  0.61550737     0.03430
C938        C  0.48496735  0.58953852  0.65089128    -0.12720
C939        C  0.48578944  0.61529345  0.67648569     0.00930
C940        C  0.48330633  0.65018123  0.66690182    -0.11250
C941        C  0.48070374  0.65974960  0.63205869     0.03420
C942        C  0.48083984  0.63412931  0.60633863    -0.10670
H943        H  0.48675093  0.56257111  0.65863616     0.09020
H944        H  0.48347735  0.67011843  0.68677755     0.06540
H945        H  0.47893127  0.64188952  0.57940509     0.06390
C946        C  0.48459951  0.86771996  0.61579312     0.03430
C947        C  0.48548293  0.87710895  0.65114935    -0.12720
C948        C  0.48438576  0.85155884  0.67685456     0.00930
C949        C  0.48205452  0.81664382  0.66749738    -0.11250
C950        C  0.48099413  0.80681628  0.63260413     0.03420
C951        C  0.48275676  0.83225425  0.60676162    -0.10670
H952        H  0.48693067  0.90411792  0.65884103     0.09020
H953        H  0.48097524  0.79695496  0.68756396     0.06540
H954        H  0.48181250  0.82433461  0.57981787     0.06390
O955        O  0.38571643  0.92633182  0.00024325    -0.86190
O956        O  0.08112099  0.92672419  0.00060313    -0.86360
O957        O  0.48274445  0.88434303  0.94380270    -0.88020
O958        O  0.48433206  0.88456743  0.55663597    -0.86780
O959        O  0.48454289  0.92682691  0.59851782    -0.86370
O960        O  0.48293218  0.92637455  0.90174594    -0.87740
O961        O  0.03961399  0.88425202  0.00053722    -0.86220
O962        O  0.42714062  0.88373368  0.00037404    -0.85810
Zr963      Zr  0.48332936  0.91280961  0.00021673     2.84310
O964        O  0.01837828  0.94790395  0.53525298    -1.07780
O965        O  0.44831542  0.94759677  0.96498089    -1.08510
C966        C  0.39534121  0.89420237  0.00034654     1.06920
C967        C  0.07139922  0.89463013  0.00064889     1.06860
C968        C  0.48274803  0.89442157  0.91184451     1.09840
C969        C  0.48463541  0.89480004  0.58853997     1.07620
H970        H  0.03271734  0.93321237  0.95056962     0.33180
O971        O  0.01822608  0.94765141  0.96496625    -1.28730
H972        H  0.43412785  0.93336172  0.54993875     0.32840
O973        O  0.44850329  0.94774908  0.53541319    -1.30410
O974        O  0.08072873  0.53963820  0.99884374    -0.86180
O975        O  0.38526368  0.53914566  0.99894606    -0.87680
O976        O  0.03933125  0.98313329  0.90139762    -0.86260
O977        O  0.03994735  0.98352583  0.59861349    -0.86310
O978        O  0.42737458  0.98363820  0.59875906    -0.86020
O979        O  0.42676857  0.98138562  0.90145816    -0.85830
O980        O  0.48308304  0.58118857  0.94340540    -0.86200
O981        O  0.48241191  0.58159422  0.55635133    -0.85660
O982        O  0.48311372  0.53906089  0.90139216    -0.86720
O983        O  0.48305947  0.53958581  0.59843748    -0.85880
O984        O  0.08103751  0.98344276  0.94375369    -0.86280
O985        O  0.38523746  0.98104515  0.94378009    -0.86000
O986        O  0.38559419  0.98359369  0.55645771    -0.85650
O987        O  0.08151631  0.98356106  0.55633179    -0.86060
O988        O  0.03902077  0.58198224  0.99899807    -0.86360
O989        O  0.42646417  0.58190781  0.99911059    -0.87700
Zr990      Zr  0.05267120  0.98315385  0.00005445     2.83100
Zr991      Zr  0.41382850  0.98279773  0.00009114     2.83500
Zr992      Zr  0.48311025  0.98275622  0.93006448     2.84090
Zr993      Zr  0.48353830  0.98321446  0.57003474     2.83360
Zr994      Zr  0.48283607  0.55314982  0.99990373     2.84220
O995        O  0.44821514  0.51824067  0.53522544    -1.08270
O996        O  0.01787688  0.51818780  0.96489436    -1.07770
C997        C  0.07086421  0.57169020  0.99859688     1.06890
C998        C  0.39472650  0.57131693  0.99855772     1.09510
C999        C  0.07118441  0.98336971  0.91170503     1.07060
C1000       C  0.07177529  0.98360062  0.58837561     1.07420
C1001       C  0.39550734  0.98373743  0.58849351     1.07010
C1002       C  0.39496643  0.98083736  0.91174022     1.06560
C1003       C  0.48312722  0.57105284  0.91146794     1.06980
C1004       C  0.48266424  0.57153835  0.58832359     1.06500
H1005       H  0.43346685  0.53220546  0.95014712     0.33180
O1006       O  0.44803652  0.51798042  0.96473045    -1.29370
H1007       H  0.03266865  0.53307084  0.54944451     0.33200
O1008       O  0.01819312  0.51850656  0.53510839    -1.30750
C1009       C  0.44875858  0.71514908  0.63632782    -0.21010
C1010       C  0.47740722  0.69686871  0.62361833    -0.09050
C1011       C  0.00497992  0.71516050  0.60853489     0.29810
C1012       C  0.00490469  0.75153641  0.60875994    -0.21010
C1013       C  0.47741401  0.76969808  0.62412787    -0.09060
C1014       C  0.44867555  0.75129599  0.63655854     0.29820
F1015       F  0.42154884  0.76835308  0.65100701    -0.19580
H1016       H  0.42736122  0.70133486  0.64803541     0.18180
H1017       H  0.02733269  0.76542531  0.59929944     0.18190
F1018       F  0.03318493  0.69796766  0.59653129    -0.19570
C1019       C  0.45420776  0.86572773  0.76824261    -0.21010
C1020       C  0.48501903  0.85983726  0.78658883    -0.09050
C1021       C  0.01630436  0.85649615  0.76849623     0.29810
C1022       C  0.01637511  0.85681511  0.73228910    -0.21010
C1023       C  0.48526431  0.86042100  0.71389573    -0.09060
C1024       C  0.45426499  0.86591609  0.73198430     0.29820
F1025       F  0.42380853  0.86855244  0.71459050    -0.19580
H1026       H  0.42986805  0.86783051  0.78195520     0.18180
H1027       H  0.04033833  0.85203734  0.71857207     0.18190
F1028       F  0.04631346  0.85048405  0.78584481    -0.19570
C1029       C  0.01757915  0.62031056  0.76822585    -0.21010
C1030       C  0.48921676  0.60686786  0.78636624    -0.09050
C1031       C  0.46222063  0.59072716  0.76795153     0.29810
C1032       C  0.46246525  0.59071652  0.73159610    -0.21010
C1033       C  0.48957143  0.60683689  0.71357072    -0.09060
C1034       C  0.01782844  0.62030142  0.73211860     0.29820
F1035       F  0.04455184  0.63558414  0.71522140    -0.19580
H1036       H  0.03860073  0.63273252  0.78210788     0.18180
H1037       H  0.44038507  0.58047920  0.71759575     0.18190
F1038       F  0.43432268  0.57788593  0.78495934    -0.19570
C1039       C  0.01063411  0.71467432  0.88482153    -0.21010
C1040       C  0.48015917  0.69645382  0.87715143    -0.09050
C1041       C  0.44924114  0.71475038  0.87156973     0.29810
C1042       C  0.44935466  0.75097119  0.87129760    -0.21010
C1043       C  0.48026584  0.76920905  0.87664766    -0.09060
C1044       C  0.01074213  0.75098042  0.88455482     0.29820
F1045       F  0.04102651  0.76821057  0.88910935    -0.19580
H1046       H  0.03473465  0.70080021  0.88863925     0.18180
H1047       H  0.42578202  0.76480265  0.86487175     0.18190
F1048       F  0.41955520  0.69753035  0.86395266    -0.19570
C1049       C  0.25205415  0.94813247  0.63322629    -0.21010
C1050       C  0.27010695  0.97737120  0.62153940    -0.09050
C1051       C  0.25166572  0.50528842  0.60697950     0.29810
C1052       C  0.21536054  0.50505543  0.60708188    -0.21010
C1053       C  0.19740880  0.97698761  0.62170387    -0.09060
C1054       C  0.21600865  0.94782912  0.63322438     0.29820
F1055       F  0.19921670  0.92009602  0.64686622    -0.19580
H1056       H  0.26594494  0.92642292  0.64445746     0.18180
H1057       H  0.20138566  0.52777987  0.59823276     0.18190
F1058       F  0.26864452  0.53393949  0.59568816    -0.19570
C1059       C  0.08957373  0.00071752  0.76840426    -0.21010
C1060       C  0.10886946  0.97579803  0.78676505    -0.09050
C1061       C  0.12554274  0.94916739  0.76835305     0.29810
C1062       C  0.12540949  0.94917192  0.73225814    -0.21010
C1063       C  0.10891077  0.97581356  0.71369419    -0.09060
C1064       C  0.08956954  0.00080062  0.73196204     0.29820
F1065       F  0.07322939  0.52684747  0.71479439    -0.19580
H1066       H  0.07661034  0.52146333  0.78219995     0.18180
H1067       H  0.13997838  0.92935765  0.71868680     0.18190
F1068       F  0.14380475  0.92429367  0.78535411    -0.19570
C1069       C  0.37772317  0.96531710  0.76841790    -0.21010
C1070       C  0.35731246  0.98935033  0.78669630    -0.09050
C1071       C  0.34017027  0.01573529  0.76819325     0.29810
C1072       C  0.34053201  0.01592530  0.73211390    -0.21010
C1073       C  0.35814218  0.99005480  0.71364471    -0.09060
C1074       C  0.37821991  0.96566897  0.73197587     0.29820
F1075       F  0.39585035  0.94057176  0.71476188    -0.19580
H1076       H  0.39127969  0.94491280  0.78219489     0.18180
H1077       H  0.32537578  0.53526011  0.71844363     0.18190
F1078       F  0.32132005  0.54022697  0.78504481    -0.19570
C1079       C  0.25163511  0.51643337  0.86668707    -0.21010
C1080       C  0.26934882  0.98708858  0.87893759    -0.09050
C1081       C  0.25059297  0.95996056  0.89438230     0.29810
C1082       C  0.21429767  0.96093903  0.89437396    -0.21010
C1083       C  0.19671069  0.98892885  0.87898156    -0.09060
C1084       C  0.21563179  0.51736776  0.86659150     0.29820
F1085       F  0.19920711  0.54486614  0.85193003    -0.19580
H1086       H  0.26575882  0.53765151  0.85493048     0.18180
H1087       H  0.19999002  0.93873838  0.90386350     0.18190
F1088       F  0.26712857  0.93129415  0.90642935    -0.19570
C1089       C  0.10355627  0.71516310  0.97011135    -0.21010
C1090       C  0.10857524  0.69662983  0.50102979    -0.09050
C1091       C  0.11187067  0.71476095  0.53245749     0.29810
C1092       C  0.11205238  0.75105980  0.53262672    -0.21010
C1093       C  0.10895879  0.76959628  0.50148365    -0.09060
C1094       C  0.10378992  0.75149367  0.97027912     0.29820
F1095       F  0.10160935  0.76891917  0.93977963    -0.19580
H1096       H  0.10157821  0.70148047  0.94564040     0.18180
H1097       H  0.11644929  0.76472608  0.55679238     0.18190
F1098       F  0.11704586  0.69732520  0.56260262    -0.19570
C1099       C  0.21547882  0.60330150  0.52650307    -0.21010
C1100       C  0.19630805  0.60358228  0.99563179    -0.09050
C1101       C  0.21339578  0.60000793  0.96372726     0.29810
C1102       C  0.24959149  0.59920673  0.96269639    -0.21010
C1103       C  0.26879007  0.60164389  0.99350685    -0.09060
C1104       C  0.25155227  0.60221909  0.52549873     0.29820
F1105       F  0.26973135  0.60506457  0.55552899    -0.19580
H1106       H  0.20255700  0.60627354  0.55122474     0.18180
H1107       H  0.26262005  0.59918191  0.93786122     0.18190
F1108       F  0.19518156  0.60014886  0.93359130    -0.19570
C1109       C  0.21517882  0.86635991  0.53012443    -0.21010
C1110       C  0.19686980  0.86250453  0.49894839    -0.09050
C1111       C  0.21480088  0.86217325  0.96734513     0.29810
C1112       C  0.25095134  0.86285671  0.96721238    -0.21010
C1113       C  0.26937341  0.86405721  0.49858574    -0.09060
C1114       C  0.25132834  0.86716748  0.52999575     0.29820
F1115       F  0.26871101  0.86784691  0.56061735    -0.19580
H1116       H  0.20156018  0.86632582  0.55464295     0.18180
H1117       H  0.26460560  0.85999539  0.94288095     0.18190
F1118       F  0.19743226  0.85851942  0.93693208    -0.19570
C1119       C  0.37778214  0.71460931  0.48457857    -0.21010
C1120       C  0.35366204  0.69591372  0.00432255    -0.09050
C1121       C  0.33244196  0.71404005  0.02775612     0.29810
C1122       C  0.33320863  0.75009794  0.02909376    -0.21010
C1123       C  0.35476554  0.76918100  0.00691149    -0.09060
C1124       C  0.37838461  0.75110081  0.48580522     0.29820
F1125       F  0.40020673  0.76855980  0.46455303    -0.19580
H1126       H  0.39463065  0.70114905  0.46664080     0.18180
H1127       H  0.31549662  0.76329473  0.04639936     0.18190
F1128       F  0.30967959  0.69691505  0.04834898    -0.19570
C1129       C  0.86750901  0.36764025  0.50051409     0.03430
C1130       C  0.83256885  0.37829438  0.99891809    -0.12720
C1131       C  0.80602721  0.35379156  0.99900337     0.00930
C1132       C  0.81402041  0.31855854  0.00064370    -0.11250
C1133       C  0.84834043  0.30710281  0.50316101     0.03420
C1134       C  0.87518437  0.33178145  0.50273232    -0.10670
H1135       H  0.82579155  0.40555572  0.99766488     0.09020
H1136       H  0.79303742  0.29988861  0.00028109     0.06540
H1137       H  0.90176373  0.32313164  0.50487382     0.06390
C1138       C  0.86682597  0.09779655  0.49696754     0.03430
C1139       C  0.83200738  0.08711855  0.49394480    -0.12720
C1140       C  0.80544887  0.11164599  0.49237960     0.00930
C1141       C  0.81335896  0.14691022  0.49368568    -0.11250
C1142       C  0.84746763  0.15830053  0.49834168     0.03420
C1143       C  0.87434810  0.13367366  0.49916115    -0.10670
H1144       H  0.82530682  0.05982795  0.49331573     0.09020
H1145       H  0.79242608  0.16564314  0.49251487     0.06540
H1146       H  0.90075619  0.14241093  0.50264639     0.06390
C1147       C  0.59836974  0.09851977  0.49803277     0.03430
C1148       C  0.63345078  0.08851007  0.49650529    -0.12720
C1149       C  0.65960977  0.11351578  0.49667767     0.00930
C1150       C  0.65099587  0.14872005  0.49841094    -0.11250
C1151       C  0.61636966  0.15921328  0.49961853     0.03420
C1152       C  0.59004759  0.13418844  0.49934788    -0.10670
H1153       H  0.64063937  0.06134709  0.49538334     0.09020
H1154       H  0.67135951  0.16807253  0.49866476     0.06540
H1155       H  0.56331971  0.14259583  0.50043189     0.06390
C1156       C  0.59892490  0.36777594  0.00063691     0.03430
C1157       C  0.63402992  0.37770550  0.00009132    -0.12720
C1158       C  0.66013559  0.35259402  0.99986003     0.00930
C1159       C  0.65145288  0.31738265  0.00045806    -0.11250
C1160       C  0.61680641  0.30698801  0.00101698     0.03420
C1161       C  0.59054029  0.33210748  0.00097944    -0.10670
H1162       H  0.64125996  0.40486484  0.99968679     0.09020
H1163       H  0.67178014  0.29795747  0.00035626     0.06540
H1164       H  0.56378827  0.32375332  0.00133614     0.06390
C1165       C  0.86743857  0.48059364  0.38484915     0.03430
C1166       C  0.83226566  0.48076166  0.39474557    -0.12720
C1167       C  0.80617904  0.48303534  0.36965700     0.00930
C1168       C  0.81510049  0.48418953  0.33460164    -0.11250
C1169       C  0.84971968  0.48460332  0.32407737     0.03420
C1170       C  0.87591425  0.48219262  0.34922624    -0.10670
H1171       H  0.82504434  0.48038328  0.42186614     0.09020
H1172       H  0.79471783  0.48562418  0.31526876     0.06540
H1173       H  0.90269489  0.48285248  0.34104743     0.06390
C1174       C  0.59866188  0.48338982  0.38486331     0.03430
C1175       C  0.63380326  0.48547940  0.39477274    -0.12720
C1176       C  0.65983369  0.48581253  0.36966917     0.00930
C1177       C  0.65096480  0.48317411  0.33462364    -0.11250
C1178       C  0.61639476  0.48024829  0.32415874     0.03420
C1179       C  0.59018379  0.48099353  0.34925680    -0.10670
H1180       H  0.64106625  0.48738490  0.42185660     0.09020
H1181       H  0.67127744  0.48317687  0.31526319     0.06540
H1182       H  0.56345269  0.47889328  0.34102105     0.06390
C1183       C  0.59925881  0.48335009  0.11535729     0.03430
C1184       C  0.59062757  0.48207634  0.15095272    -0.12720
C1185       C  0.61667619  0.47959891  0.17624972     0.00930
C1186       C  0.65134847  0.47907735  0.16587178    -0.11250
C1187       C  0.66044627  0.48023761  0.13085198     0.03420
C1188       C  0.63448352  0.48285601  0.10563368    -0.10670
H1189       H  0.56380690  0.48189779  0.15901990     0.09020
H1190       H  0.67161064  0.47735644  0.18531061     0.06540
H1191       H  0.64182972  0.48339828  0.07855058     0.06390
C1192       C  0.86809587  0.48378294  0.11539607     0.03430
C1193       C  0.87669063  0.48588087  0.15098926    -0.12720
C1194       C  0.85058057  0.48603040  0.17620146     0.00930
C1195       C  0.81596878  0.48310223  0.16580123    -0.11250
C1196       C  0.80698635  0.48086085  0.13076169     0.03420
C1197       C  0.83293739  0.48157497  0.10558133    -0.10670
H1198       H  0.90343955  0.48808558  0.15913611     0.09020
H1199       H  0.79570889  0.48271350  0.18521234     0.06540
H1200       H  0.82560533  0.47980292  0.07850734     0.06390
C1201       C  0.98315904  0.09827805  0.38437704     0.03430
C1202       C  0.98179009  0.13365130  0.39377520    -0.12720
C1203       C  0.98199445  0.15939991  0.36826525     0.00930
C1204       C  0.98410692  0.15008114  0.33335517    -0.11250
C1205       C  0.98572624  0.11518171  0.32350124     0.03420
C1206       C  0.98483672  0.08926767  0.34893678    -0.10670
H1207       H  0.98036884  0.14132897  0.42076337     0.09020
H1208       H  0.98454164  0.17019149  0.31368296     0.06540
H1209       H  0.98618389  0.06231502  0.34103558     0.06390
C1210       C  0.98270316  0.36727492  0.38463063     0.03430
C1211       C  0.98195123  0.33183432  0.39371949    -0.12720
C1212       C  0.98165878  0.30629019  0.36793011     0.00930
C1213       C  0.98254542  0.31592265  0.33301795    -0.11250
C1214       C  0.98360767  0.35090784  0.32359024     0.03420
C1215       C  0.98347000  0.37656278  0.34925622    -0.10670
H1216       H  0.98131341  0.32395708  0.42067423     0.09020
H1217       H  0.98249203  0.29606853  0.31306462     0.06540
H1218       H  0.98420309  0.40357842  0.34151542     0.06390
C1219       C  0.98273198  0.09873480  0.11550731     0.03430
C1220       C  0.98496404  0.08954987  0.15089091    -0.12720
C1221       C  0.98578961  0.11530339  0.17648666     0.00930
C1222       C  0.98330992  0.15019194  0.16690430    -0.11250
C1223       C  0.98070690  0.15976174  0.13206138     0.03420
C1224       C  0.98083956  0.13414258  0.10634020    -0.10670
H1225       H  0.98674485  0.06258195  0.15863466     0.09020
H1226       H  0.98348294  0.17012834  0.18678080     0.06540
H1227       H  0.97893026  0.14190386  0.07940702     0.06390
C1228       C  0.98457946  0.36773294  0.11578827     0.03430
C1229       C  0.98546754  0.37712028  0.15114466    -0.12720
C1230       C  0.98438248  0.35156834  0.17684834     0.00930
C1231       C  0.98205816  0.31665347  0.16748973    -0.11250
C1232       C  0.98099044  0.30682782  0.13259643     0.03420
C1233       C  0.98274106  0.33226740  0.10675488    -0.10670
H1234       H  0.98691066  0.40412914  0.15883765     0.09020
H1235       H  0.98098743  0.29696320  0.18755545     0.06540
H1236       H  0.98179196  0.32434898  0.07981092     0.06390
O1237       O  0.88575616  0.42630899  0.50023966    -0.86190
O1238       O  0.58112843  0.42671466  0.50060133    -0.86360
O1239       O  0.98277156  0.38432977  0.44379794    -0.88020
O1240       O  0.98430682  0.38458252  0.05663288    -0.86780
O1241       O  0.98451960  0.42684066  0.09851587    -0.86370
O1242       O  0.98295620  0.42636309  0.40174282    -0.87740
O1243       O  0.53963227  0.38423177  0.50053317    -0.86220
O1244       O  0.92716741  0.38369885  0.50037208    -0.85810
Zr1245     Zr  0.98335123  0.41279113  0.50021565     2.84310
O1246       O  0.51835954  0.44791397  0.03525510    -1.07780
O1247       O  0.94833699  0.44757993  0.46498040    -1.08510
C1248       C  0.89537076  0.39417665  0.50034422     1.06920
C1249       C  0.57141433  0.39461803  0.50064530     1.06860
C1250       C  0.98277403  0.39440963  0.41184004     1.09840
C1251       C  0.98461127  0.39481412  0.08853689     1.07620
H1252       H  0.53273637  0.43320263  0.45056905     0.33180
O1253       O  0.51824318  0.44763920  0.46496617    -1.28730
H1254       H  0.93410551  0.43338003  0.04993986     0.32840
O1255       O  0.94848083  0.44776724  0.03541403    -1.30410
O1256       O  0.58073259  0.03963638  0.49884343    -0.86180
O1257       O  0.88528813  0.03913372  0.49895529    -0.87680
O1258       O  0.53934770  0.48312698  0.40139847    -0.86260
O1259       O  0.53993002  0.48353234  0.09861417    -0.86310
O1260       O  0.92735744  0.48365825  0.09876176    -0.86020
O1261       O  0.92678464  0.48136977  0.40146052    -0.85830
O1262       O  0.98309055  0.08117754  0.44340448    -0.86200
O1263       O  0.98240516  0.08160738  0.05634995    -0.85660
O1264       O  0.98312597  0.03904973  0.40139124    -0.86720
O1265       O  0.98304882  0.03959984  0.09843690    -0.85880
O1266       O  0.58105400  0.48343900  0.44375441    -0.86280
O1267       O  0.88525518  0.48102933  0.44378399    -0.86000
O1268       O  0.88557534  0.48361746  0.05646189    -0.85650
O1269       O  0.58149912  0.48356193  0.05633250    -0.86060
O1270       O  0.53902797  0.08198363  0.49899946    -0.86360
O1271       O  0.92647656  0.08190711  0.49911837    -0.87700
Zr1272     Zr  0.55268376  0.48314635  0.50005415     2.83100
Zr1273     Zr  0.91385108  0.48278087  0.50009111     2.83500
Zr1274     Zr  0.98312792  0.48274357  0.43006432     2.84090
Zr1275     Zr  0.98351946  0.48322949  0.07003507     2.83360
Zr1276     Zr  0.98284784  0.05314317  0.49990432     2.84220
O1277       O  0.94820037  0.01825505  0.03522414    -1.08270
O1278       O  0.51789150  0.01817807  0.46489473    -1.07770
C1279       C  0.57087040  0.07168957  0.49859732     1.06890
C1280       C  0.89474142  0.07130844  0.49856857     1.09510
C1281       C  0.57120084  0.48336609  0.41170558     1.07060
C1282       C  0.57175812  0.48360301  0.08837609     1.07420
C1283       C  0.89548988  0.48375976  0.08849749     1.07010
C1284       C  0.89498283  0.48082218  0.41174391     1.06560
C1285       C  0.98313558  0.07104168  0.41146720     1.06980
C1286       C  0.98265688  0.07155209  0.08832265     1.06500
H1287       H  0.93348157  0.03219260  0.45014805     0.33180
O1288       O  0.94805374  0.01796895  0.46473041    -1.29370
H1289       H  0.53265738  0.03307834  0.04944447     0.33200
O1290       O  0.51818078  0.01851497  0.03510853    -1.30750
C1291       C  0.94876088  0.21516063  0.13632983    -0.21010
C1292       C  0.97741024  0.19688078  0.12362147    -0.09050
C1293       C  0.50498080  0.21517190  0.10853606     0.29810
C1294       C  0.50490293  0.25154776  0.10875626    -0.21010
C1295       C  0.97741157  0.26970981  0.12412053    -0.09060
C1296       C  0.94867501  0.25130743  0.13655495     0.29820
F1297       F  0.92154807  0.26836471  0.15100282    -0.19580
H1298       H  0.92736484  0.20134645  0.14803987     0.18180
H1299       H  0.52732978  0.26543717  0.09929376     0.18190
F1300       F  0.53318642  0.19797940  0.09653343    -0.19570
C1301       C  0.95420765  0.36572301  0.26823825    -0.21010
C1302       C  0.98501995  0.35983132  0.28658238    -0.09050
C1303       C  0.51630475  0.35649481  0.26848908     0.29810
C1304       C  0.51637431  0.35682002  0.23228212    -0.21010
C1305       C  0.98526283  0.36042787  0.21388969    -0.09060
C1306       C  0.95426381  0.36591823  0.23198001     0.29820
F1307       F  0.92380676  0.36855577  0.21458734    -0.19580
H1308       H  0.92986833  0.36782239  0.28195203     0.18180
H1309       H  0.54033719  0.35204530  0.21856344     0.18190
F1310       F  0.54631476  0.35048154  0.28583562    -0.19570
C1311       C  0.51757956  0.12030605  0.26822904    -0.21010
C1312       C  0.98921674  0.10686233  0.28636683    -0.09050
C1313       C  0.96221968  0.09072586  0.26795000     0.29810
C1314       C  0.96246388  0.09072113  0.23159453    -0.21010
C1315       C  0.98957039  0.10684362  0.21357132    -0.09060
C1316       C  0.51782825  0.12030317  0.23212179     0.29820
F1317       F  0.54455228  0.13558733  0.21522696    -0.19580
H1318       H  0.53860165  0.13272515  0.28211287     0.18180
H1319       H  0.94038331  0.08048655  0.21759283     0.18190
F1320       F  0.93432143  0.07788322  0.28495629    -0.19570
C1321       C  0.51063152  0.21466241  0.38482675    -0.21010
C1322       C  0.98015631  0.19644358  0.37715413    -0.09050
C1323       C  0.94924005  0.21474131  0.37156631     0.29810
C1324       C  0.94935610  0.25096211  0.37128782    -0.21010
C1325       C  0.98026784  0.26919880  0.37663916    -0.09060
C1326       C  0.51074179  0.25096852  0.38455462     0.29820
F1327       F  0.54102662  0.26819737  0.38911148    -0.19580
H1328       H  0.53473089  0.20078749  0.38864905     0.18180
H1329       H  0.92578501  0.26479414  0.36485752     0.18190
F1330       F  0.91955369  0.19752186  0.36394948    -0.19570
C1331       C  0.75204061  0.44813687  0.13323463    -0.21010
C1332       C  0.77009237  0.47737701  0.12154952    -0.09050
C1333       C  0.75165128  0.00529085  0.10698213     0.29810
C1334       C  0.71534600  0.00505396  0.10707797    -0.21010
C1335       C  0.69739401  0.47698495  0.12169949    -0.09060
C1336       C  0.71599507  0.44782891  0.13322455     0.29820
F1337       F  0.69920348  0.42009431  0.14686390    -0.19580
H1338       H  0.76593169  0.42642920  0.14446908     0.18180
H1339       H  0.70137035  0.02777669  0.09822569     0.18190
F1340       F  0.76862889  0.03394274  0.09569102    -0.19570
C1341       C  0.58957902  0.50072178  0.26840485    -0.21010
C1342       C  0.60887792  0.47580306  0.28676355    -0.09050
C1343       C  0.62554595  0.44917017  0.26835011     0.29810
C1344       C  0.62540370  0.44917110  0.23225524    -0.21010
C1345       C  0.60890230  0.47581212  0.21369269    -0.09060
C1346       C  0.58956668  0.50080186  0.23196258     0.29820
F1347       F  0.57322493  0.02684824  0.21479546    -0.19580
H1348       H  0.57661954  0.02146876  0.28220103     0.18180
H1349       H  0.63996874  0.42935508  0.21868228     0.18190
F1350       F  0.64381052  0.42429694  0.28534905    -0.19570
C1351       C  0.87772690  0.46531723  0.26842101    -0.21010
C1352       C  0.85731999  0.48935037  0.28670356    -0.09050
C1353       C  0.84017457  0.51573593  0.26820418     0.29810
C1354       C  0.84052789  0.51592548  0.23212478    -0.21010
C1355       C  0.85813460  0.49005537  0.21365201    -0.09060
C1356       C  0.87821643  0.46566962  0.23197891     0.29820
F1357       F  0.89584436  0.44057326  0.21476117    -0.19580
H1358       H  0.89128573  0.44491248  0.28219507     0.18180
H1359       H  0.82536867  0.03525990  0.21845686     0.18190
F1360       F  0.82132820  0.04022776  0.28505900    -0.19570
C1361       C  0.75165233  0.01643547  0.36669612    -0.21010
C1362       C  0.76936356  0.48708959  0.37894837    -0.09050
C1363       C  0.75060534  0.45996043  0.39438784     0.29810
C1364       C  0.71431007  0.46093848  0.39437305    -0.21010
C1365       C  0.69672541  0.48892856  0.37897838    -0.09060
C1366       C  0.71564899  0.01736852  0.36659213     0.29820
F1367       F  0.69922667  0.04486712  0.35192843    -0.19580
H1368       H  0.76577791  0.03765433  0.35494305     0.18180
H1369       H  0.70000104  0.43873746  0.40385962     0.18190
F1370       F  0.76713918  0.43129315  0.40643506    -0.19570
C1371       C  0.60361175  0.21516099  0.47011200    -0.21010
C1372       C  0.60855332  0.19662093  0.00102970    -0.09050
C1373       C  0.61182923  0.21475072  0.03245971     0.29810
C1374       C  0.61198960  0.25104918  0.03263141    -0.21010
C1375       C  0.60889582  0.26958533  0.00148818    -0.09060
C1376       C  0.60385815  0.25149243  0.47027718     0.29820
F1377       F  0.60167074  0.26891634  0.43977727    -0.19580
H1378       H  0.60161966  0.20147763  0.44564260     0.18180
H1379       H  0.61637676  0.26471623  0.05679841     0.18190
F1380       F  0.61700904  0.19731549  0.06260440    -0.19570
C1381       C  0.71548618  0.10332865  0.02650233    -0.21010
C1382       C  0.69631575  0.10353161  0.49563249    -0.09050
C1383       C  0.71340071  0.09994258  0.46372842     0.29810
C1384       C  0.74959542  0.09912645  0.46269796    -0.21010
C1385       C  0.76879345  0.10156176  0.49350866    -0.09060
C1386       C  0.75156080  0.10226998  0.02549561     0.29820
F1387       F  0.76974031  0.10511613  0.05552556    -0.19580
H1388       H  0.70256422  0.10628941  0.05122524     0.18180
H1389       H  0.76262423  0.09909887  0.43786289     0.18190
F1390       F  0.69518655  0.10008850  0.43359242    -0.19570
C1391       C  0.71516797  0.36628003  0.03010723    -0.21010
C1392       C  0.69685008  0.36243922  0.99893438    -0.09050
C1393       C  0.71482328  0.36227004  0.46736115     0.29810
C1394       C  0.75097210  0.36296581  0.46723432    -0.21010
C1395       C  0.76936002  0.36396306  0.99856057    -0.09060
C1396       C  0.75131856  0.36706949  0.02997323     0.29820
F1397       F  0.76870549  0.36773573  0.06059265    -0.19580
H1398       H  0.70155343  0.36625284  0.05462805     0.18180
H1399       H  0.76463089  0.36011088  0.44290469     0.18190
F1400       F  0.69746064  0.35862220  0.43694407    -0.19570
C1401       C  0.87784908  0.21462042  0.98458361    -0.21010
C1402       C  0.85358795  0.19589811  0.50430665    -0.09050
C1403       C  0.83233434  0.21402896  0.52770850     0.29810
C1404       C  0.83309441  0.25008892  0.52904018    -0.21010
C1405       C  0.85467710  0.26917423  0.50688294    -0.09060
C1406       C  0.87846133  0.25111074  0.98582046     0.29820
F1407       F  0.90027792  0.26857273  0.96456443    -0.19580
H1408       H  0.89468168  0.20116040  0.96663056     0.18180
H1409       H  0.81536954  0.26328427  0.54633347     0.18190
F1410       F  0.80955639  0.19690591  0.54828615    -0.19570
C1411       C  0.86749661  0.36764850  0.00051334     0.03430
C1412       C  0.83259158  0.37831986  0.49893506    -0.12720
C1413       C  0.80602738  0.35384591  0.49903195     0.00930
C1414       C  0.81398340  0.31860387  0.50066377    -0.11250
C1415       C  0.84838827  0.30709609  0.00316404     0.03420
C1416       C  0.87520599  0.33179875  0.00274213    -0.10670
H1417       H  0.82583780  0.40558727  0.49768477     0.09020
H1418       H  0.79297945  0.29995783  0.50030261     0.06540
H1419       H  0.90179208  0.32317283  0.00489846     0.06390
C1420       C  0.86683096  0.09781599  0.99695254     0.03430
C1421       C  0.83200732  0.08715558  0.99393091    -0.12720
C1422       C  0.80546061  0.11169702  0.99237512     0.00930
C1423       C  0.81339043  0.14695732  0.99368969    -0.11250
C1424       C  0.84750838  0.15832582  0.99833767     0.03420
C1425       C  0.87437341  0.13368641  0.99914730    -0.10670
H1426       H  0.82529413  0.05986818  0.99329844     0.09020
H1427       H  0.79246839  0.16570325  0.99253333     0.06540
H1428       H  0.90078641  0.14240973  0.00263114     0.06390
C1429       C  0.59837058  0.09851365  0.99803409     0.03430
C1430       C  0.63345421  0.08850893  0.99650846    -0.12720
C1431       C  0.65960965  0.11352042  0.99668053     0.00930
C1432       C  0.65098789  0.14872296  0.99841230    -0.11250
C1433       C  0.61635962  0.15920837  0.99961897     0.03420
C1434       C  0.59004306  0.13417991  0.99934820    -0.10670
H1435       H  0.64064649  0.06134695  0.99538724     0.09020
H1436       H  0.67134697  0.16808029  0.99866557     0.06540
H1437       H  0.56331392  0.14258358  0.00043113     0.06390
C1438       C  0.59894980  0.36778272  0.50063324     0.03430
C1439       C  0.63404839  0.37772878  0.50009382    -0.12720
C1440       C  0.66016452  0.35263179  0.49986648     0.00930
C1441       C  0.65150035  0.31741463  0.50046105    -0.11250
C1442       C  0.61685788  0.30700267  0.50101251     0.03420
C1443       C  0.59058052  0.33211089  0.50097144    -0.10670
H1444       H  0.64126665  0.40489147  0.49969241     0.09020
H1445       H  0.67183757  0.29800010  0.50036259     0.06540
H1446       H  0.56383186  0.32374575  0.50132358     0.06390
C1447       C  0.86742292  0.48060393  0.88484328     0.03430
C1448       C  0.83224943  0.48076827  0.89473699    -0.12720
C1449       C  0.80616415  0.48303658  0.86964650     0.00930
C1450       C  0.81508780  0.48418994  0.83459133    -0.11250
C1451       C  0.84970800  0.48460577  0.82406958     0.03420
C1452       C  0.87590085  0.48220047  0.84922081    -0.10670
H1453       H  0.82502643  0.48039118  0.92185712     0.09020
H1454       H  0.79470644  0.48562200  0.81525691     0.06540
H1455       H  0.90268202  0.48286234  0.84104390     0.06390
C1456       C  0.59864549  0.48338884  0.88486441     0.03430
C1457       C  0.63378665  0.48547886  0.89477564    -0.12720
C1458       C  0.65981823  0.48581073  0.86967330     0.00930
C1459       C  0.65095090  0.48317028  0.83462787    -0.11250
C1460       C  0.61638172  0.48024359  0.82416120     0.03420
C1461       C  0.59016913  0.48099032  0.84925762    -0.10670
H1462       H  0.64104850  0.48738632  0.92185966     0.09020
H1463       H  0.67126454  0.48317273  0.81526844     0.06540
H1464       H  0.56343844  0.47888989  0.84102060     0.06390
C1465       C  0.59927475  0.48335082  0.61535827     0.03430
C1466       C  0.59064158  0.48207769  0.65095331    -0.12720
C1467       C  0.61668849  0.47960130  0.67625216     0.00930
C1468       C  0.65136162  0.47907987  0.66587622    -0.11250
C1469       C  0.66046114  0.48024091  0.63085659     0.03420
C1470       C  0.63449972  0.48285834  0.60563683    -0.10670
H1471       H  0.56382043  0.48189821  0.65901890     0.09020
H1472       H  0.67162273  0.47735842  0.68531609     0.06540
H1473       H  0.64184719  0.48340024  0.57855406     0.06390
C1474       C  0.86811172  0.48376321  0.61539014     0.03430
C1475       C  0.87670407  0.48586733  0.65098358    -0.12720
C1476       C  0.85059186  0.48602652  0.67619357     0.00930
C1477       C  0.81598069  0.48310175  0.66579097    -0.11250
C1478       C  0.80700074  0.48085292  0.63075159     0.03420
C1479       C  0.83295363  0.48155686  0.60557300    -0.10670
H1480       H  0.90345266  0.48807022  0.65913204     0.09020
H1481       H  0.79571900  0.48271996  0.68520038     0.06540
H1482       H  0.82562321  0.47977977  0.57849889     0.06390
C1483       C  0.98315565  0.09828981  0.88437650     0.03430
C1484       C  0.98178920  0.13366333  0.89377321    -0.12720
C1485       C  0.98199701  0.15941101  0.86826232     0.00930
C1486       C  0.98411030  0.15009097  0.83335247    -0.11250
C1487       C  0.98572670  0.11519087  0.82349987     0.03420
C1488       C  0.98483395  0.08927804  0.84893657    -0.10670
H1489       H  0.98036694  0.14134193  0.92076106     0.09020
H1490       H  0.98454704  0.17020059  0.81367959     0.06540
H1491       H  0.98617900  0.06232498  0.84103645     0.06390
C1492       C  0.98268148  0.36728657  0.88463663     0.03430
C1493       C  0.98193349  0.33184628  0.89372722    -0.12720
C1494       C  0.98165412  0.30630105  0.86793894     0.00930
C1495       C  0.98254901  0.31593194  0.83302676    -0.11250
C1496       C  0.98360421  0.35091673  0.82359735     0.03420
C1497       C  0.98345356  0.37657298  0.84926190    -0.10670
H1498       H  0.98129045  0.32397014  0.92068214     0.09020
H1499       H  0.98250512  0.29607672  0.81307449     0.06540
H1500       H  0.98418221  0.40358839  0.84151987     0.06390
C1501       C  0.98273549  0.09872186  0.61550717     0.03430
C1502       C  0.98496738  0.08953860  0.65089106    -0.12720
C1503       C  0.98578949  0.11529356  0.67648541     0.00930
C1504       C  0.98330635  0.15018133  0.66690154    -0.11250
C1505       C  0.98070372  0.15974967  0.63205841     0.03420
C1506       C  0.98083980  0.13412936  0.60633837    -0.10670
H1507       H  0.98675097  0.06257120  0.65863598     0.09020
H1508       H  0.98347738  0.17011854  0.68677725     0.06540
H1509       H  0.97893119  0.14188953  0.57940483     0.06390
C1510       C  0.98459949  0.36772002  0.61579319     0.03430
C1511       C  0.98548289  0.37710899  0.65114943    -0.12720
C1512       C  0.98438571  0.35155888  0.67685464     0.00930
C1513       C  0.98205448  0.31664386  0.66749744    -0.11250
C1514       C  0.98099413  0.30681634  0.63260418     0.03420
C1515       C  0.98275676  0.33225432  0.60676168    -0.10670
H1516       H  0.98693063  0.40411796  0.65884111     0.09020
H1517       H  0.98097521  0.29695499  0.68756401     0.06540
H1518       H  0.98181252  0.32433468  0.57981793     0.06390
O1519       O  0.88571668  0.42633062  0.00024379    -0.86190
O1520       O  0.58111625  0.42671579  0.00060306    -0.86360
O1521       O  0.98274542  0.38434396  0.94380287    -0.88020
O1522       O  0.98433205  0.38456749  0.55663602    -0.86780
O1523       O  0.98454287  0.42682696  0.59851787    -0.86370
O1524       O  0.98293246  0.42637529  0.90174598    -0.87740
O1525       O  0.53961070  0.38424228  0.00053653    -0.86220
O1526       O  0.92714137  0.38373300  0.00037456    -0.85810
Zr1527     Zr  0.98332953  0.41281090  0.00021676     2.84310
O1528       O  0.51837836  0.44790404  0.53525297    -1.07780
O1529       O  0.94831480  0.44759700  0.96498088    -1.08510
C1530       C  0.89534177  0.39420130  0.00034724     1.06920
C1531       C  0.57139587  0.39462084  0.00064841     1.06860
C1532       C  0.98274884  0.39442235  0.91184464     1.09840
C1533       C  0.98463539  0.39480010  0.58854002     1.07620
H1534       H  0.53271572  0.43320910  0.95056895     0.33180
O1535       O  0.51822453  0.44764815  0.96496564    -1.28730
H1536       H  0.93412784  0.43336174  0.54993874     0.32840
O1537       O  0.94850329  0.44774910  0.53541318    -1.30410
O1538       O  0.58073174  0.03963134  0.99884441    -0.86180
O1539       O  0.88527274  0.03914910  0.99894654    -0.87680
O1540       O  0.53933021  0.48313210  0.90139821    -0.86260
O1541       O  0.53994731  0.48352589  0.59861358    -0.86310
O1542       O  0.92737450  0.48363822  0.59875896    -0.86020
O1543       O  0.92676767  0.48138514  0.90145809    -0.85830
O1544       O  0.98308598  0.08118987  0.94340496    -0.86200
O1545       O  0.98241186  0.08159421  0.55635121    -0.85660
O1546       O  0.98311447  0.03906225  0.90139164    -0.86720
O1547       O  0.98305944  0.03958583  0.59843738    -0.85880
O1548       O  0.58103662  0.48343930  0.94375417    -0.86280
O1549       O  0.88523633  0.48104367  0.94377986    -0.86000
O1550       O  0.88559412  0.48359370  0.55645761    -0.85650
O1551       O  0.58151631  0.48356111  0.55633191    -0.86060
O1552       O  0.53902822  0.08197973  0.99899846    -0.86360
O1553       O  0.92647167  0.08191274  0.99911013    -0.87700
Zr1554     Zr  0.55266962  0.48314939  0.00005449     2.83100
Zr1555     Zr  0.91382682  0.48279716  0.00009114     2.83500
Zr1556     Zr  0.98310927  0.48275691  0.93006450     2.84090
Zr1557     Zr  0.98353828  0.48321449  0.57003474     2.83360
Zr1558     Zr  0.98283995  0.05315189  0.99990377     2.84220
O1559       O  0.94821507  0.01824057  0.53522549    -1.08270
O1560       O  0.51787936  0.01818571  0.96489432    -1.07770
C1561       C  0.57087081  0.07168422  0.99859759     1.06890
C1562       C  0.89473490  0.07132044  0.99855740     1.09510
C1563       C  0.57118345  0.48336769  0.91170553     1.07060
C1564       C  0.57177526  0.48360067  0.58837573     1.07420
C1565       C  0.89550727  0.48373744  0.58849340     1.07010
C1566       C  0.89496549  0.48083624  0.91174003     1.06560
C1567       C  0.98312878  0.07105413  0.91146749     1.06980
C1568       C  0.98266421  0.07153836  0.58832345     1.06500
H1569       H  0.93346978  0.03220725  0.95014782     0.33180
O1570       O  0.94803943  0.01798221  0.96473116    -1.29370
H1571       H  0.53266867  0.03307081  0.54944450     0.33200
O1572       O  0.51819315  0.01850653  0.53510838    -1.30750
C1573       C  0.94875854  0.21514913  0.63632760    -0.21010
C1574       C  0.97740718  0.19686878  0.62361806    -0.09050
C1575       C  0.50497990  0.21516051  0.60853453     0.29810
C1576       C  0.50490464  0.25153642  0.60875952    -0.21010
C1577       C  0.97741403  0.26969815  0.62412788    -0.09060
C1578       C  0.94867555  0.25129604  0.63655846     0.29820
F1579       F  0.92154885  0.26835309  0.65100698    -0.19580
H1580       H  0.92736117  0.20133488  0.64803513     0.18180
H1581       H  0.52733264  0.26542531  0.59929901     0.18190
F1582       F  0.53318491  0.19796767  0.59653094    -0.19570
C1583       C  0.95420788  0.36572792  0.76824277    -0.21010
C1584       C  0.98501921  0.35983767  0.78658895    -0.09050
C1585       C  0.51630437  0.35649600  0.76849566     0.29810
C1586       C  0.51637516  0.35681509  0.73228855    -0.21010
C1587       C  0.98526430  0.36042103  0.71389582    -0.09060
C1588       C  0.95426501  0.36591610  0.73198446     0.29820
F1589       F  0.92380850  0.36855231  0.71459072    -0.19580
H1590       H  0.92986819  0.36783070  0.78195542     0.18180
H1591       H  0.54033839  0.35203736  0.71857153     0.18190
F1592       F  0.54631345  0.35048387  0.78584426    -0.19570
C1593       C  0.51757926  0.12031002  0.76822553    -0.21010
C1594       C  0.98921658  0.10686861  0.78636585    -0.09050
C1595       C  0.96222055  0.09072767  0.76795122     0.29810
C1596       C  0.96246527  0.09071676  0.73159580    -0.21010
C1597       C  0.98957149  0.10683705  0.71357042    -0.09060
C1598       C  0.51782847  0.12030119  0.73211828     0.29820
F1599       F  0.54455187  0.13558397  0.71522114    -0.19580
H1600       H  0.53860088  0.13273184  0.78210762     0.18180
H1601       H  0.94038515  0.08047932  0.71759546     0.18190
F1602       F  0.93432261  0.07788644  0.78495905    -0.19570
C1603       C  0.51063399  0.21467365  0.88482105    -0.21010
C1604       C  0.98015906  0.19645469  0.87715098    -0.09050
C1605       C  0.94924105  0.21475131  0.87156948     0.29810
C1606       C  0.94935464  0.25097212  0.87129771    -0.21010
C1607       C  0.98026589  0.26920983  0.87664796    -0.09060
C1608       C  0.51074204  0.25097974  0.88455415     0.29820
F1609       F  0.54102636  0.26820991  0.88910917    -0.19580
H1610       H  0.53473448  0.20079954  0.88863905     0.18180
H1611       H  0.92578206  0.26480369  0.86487195     0.18190
F1612       F  0.91955507  0.19753139  0.86395231    -0.19570
C1613       C  0.75205410  0.44813244  0.63322631    -0.21010
C1614       C  0.77010688  0.47737117  0.62153937    -0.09050
C1615       C  0.75166577  0.00528843  0.60697981     0.29810
C1616       C  0.71536059  0.00505544  0.60708210    -0.21010
C1617       C  0.69740872  0.47698760  0.62170406    -0.09060
C1618       C  0.71600860  0.44782910  0.63322452     0.29820
F1619       F  0.69921668  0.42009600  0.64686639    -0.19580
H1620       H  0.76594492  0.42642289  0.64445745     0.18180
H1621       H  0.70138572  0.02777987  0.59823294     0.18190
F1622       F  0.76864459  0.03393950  0.59568849    -0.19570
C1623       C  0.58957322  0.50071759  0.76840446    -0.21010
C1624       C  0.60886885  0.47579811  0.78676536    -0.09050
C1625       C  0.62554238  0.44916758  0.76835341     0.29810
C1626       C  0.62540935  0.44917214  0.73225849    -0.21010
C1627       C  0.60891064  0.47581372  0.71369444    -0.09060
C1628       C  0.58956926  0.50080074  0.73196222     0.29820
F1629       F  0.57322941  0.02684744  0.71479471    -0.19580
H1630       H  0.57661082  0.02146343  0.78220028     0.18180
H1631       H  0.63997838  0.42935792  0.71868724     0.18190
F1632       F  0.64380442  0.42429393  0.78535455    -0.19570
C1633       C  0.87772293  0.46531695  0.76841769    -0.21010
C1634       C  0.85731222  0.48935019  0.78669608    -0.09050
C1635       C  0.84017029  0.51573534  0.76819307     0.29810
C1636       C  0.84053213  0.51592544  0.73211372    -0.21010
C1637       C  0.85814221  0.49005487  0.71364454    -0.09060
C1638       C  0.87821981  0.46566894  0.73197568     0.29820
F1639       F  0.89585022  0.44057172  0.71476166    -0.19580
H1640       H  0.89127931  0.44491254  0.78219466     0.18180
H1641       H  0.82537542  0.03525980  0.71844412     0.18190
F1642       F  0.82131969  0.04022688  0.78504527    -0.19570
C1643       C  0.75163558  0.01643408  0.86668839    -0.21010
C1644       C  0.76934809  0.48708827  0.87893712    -0.09050
C1645       C  0.75059226  0.45996045  0.89438220     0.29810
C1646       C  0.71429695  0.46093911  0.89437425    -0.21010
C1647       C  0.69670991  0.48892894  0.87898190    -0.09060
C1648       C  0.71563224  0.01736817  0.86659245     0.29820
F1649       F  0.69920747  0.04486655  0.85193106    -0.19580
H1650       H  0.76575924  0.03765240  0.85493207     0.18180
H1651       H  0.69998931  0.43873856  0.90386402     0.18190
F1652       F  0.76712784  0.43129404  0.90642927    -0.19570
C1653       C  0.60358611  0.21515019  0.97011180    -0.21010
C1654       C  0.60857519  0.19662983  0.50102979    -0.09050
C1655       C  0.61187062  0.21476096  0.53245749     0.29810
C1656       C  0.61205232  0.25105981  0.53262672    -0.21010
C1657       C  0.60895875  0.26959629  0.50148364    -0.09060
C1658       C  0.60381303  0.25148113  0.97027918     0.29820
F1659       F  0.60162953  0.26890546  0.93977927    -0.19580
H1660       H  0.60160746  0.20146697  0.94564122     0.18180
H1661       H  0.61644922  0.26472609  0.55679238     0.18190
F1662       F  0.61704580  0.19732520  0.56260262    -0.19570
C1663       C  0.71547881  0.10330153  0.52650308    -0.21010
C1664       C  0.69632006  0.10354863  0.99563309    -0.09050
C1665       C  0.71340647  0.09997711  0.96372755     0.29810
C1666       C  0.74960196  0.09918472  0.96269480    -0.21010
C1667       C  0.76880064  0.10162608  0.99350456    -0.09060
C1668       C  0.75155226  0.10221912  0.52549875     0.29820
F1669       F  0.76973134  0.10506460  0.55552901    -0.19580
H1670       H  0.70255699  0.10627358  0.55122475     0.18180
H1671       H  0.76262950  0.09916438  0.93785908     0.18190
F1672       F  0.69519075  0.10011471  0.93359250    -0.19570
C1673       C  0.71517883  0.36635989  0.53012441    -0.21010
C1674       C  0.69686981  0.36250450  0.49894838    -0.09050
C1675       C  0.71480149  0.36217739  0.96734541     0.29810
C1676       C  0.75095192  0.36286027  0.96721291    -0.21010
C1677       C  0.76937342  0.36405721  0.49858572    -0.09060
C1678       C  0.75132835  0.36716747  0.52999573     0.29820
F1679       F  0.76871102  0.36784691  0.56061733    -0.19580
H1680       H  0.70156018  0.36632580  0.55464294     0.18180
H1681       H  0.76460630  0.35999862  0.94288159     0.18190
F1682       F  0.69743312  0.35852289  0.93693229    -0.19570
C1683       C  0.87778216  0.21460931  0.48457856    -0.21010
C1684       C  0.85365815  0.19591263  0.00431943    -0.09050
C1685       C  0.83243566  0.21403848  0.02775111     0.29810
C1686       C  0.83320275  0.25009638  0.02909003    -0.21010
C1687       C  0.85476223  0.26918007  0.00691065    -0.09060
C1688       C  0.87838462  0.25110081  0.48580519     0.29820
F1689       F  0.90020672  0.26855979  0.46455298    -0.19580
H1690       H  0.89463066  0.20114905  0.46664078     0.18180
H1691       H  0.81548960  0.26329272  0.04639479     0.18190
F1692       F  0.80967195  0.19691307  0.04834211    -0.19570
C1693       C  0.86750897  0.86764022  0.50051420     0.03430
C1694       C  0.83256851  0.87829502  0.99891691    -0.12720
C1695       C  0.80602728  0.85379131  0.99900254     0.00930
C1696       C  0.81402174  0.81855858  0.00064347    -0.11250
C1697       C  0.84834040  0.80710277  0.50316108     0.03420
C1698       C  0.87518434  0.83178142  0.50273242    -0.10670
H1699       H  0.82579070  0.90555621  0.99766353     0.09020
H1700       H  0.79303948  0.79988779  0.00028166     0.06540
H1701       H  0.90176370  0.82313161  0.50487393     0.06390
C1702       C  0.86682603  0.59779649  0.49696748     0.03430
C1703       C  0.83200745  0.58711846  0.49394472    -0.12720
C1704       C  0.80544892  0.61164588  0.49237948     0.00930
C1705       C  0.81335897  0.64691011  0.49368552    -0.11250
C1706       C  0.84746763  0.65830046  0.49834159     0.03420
C1707       C  0.87434812  0.63367361  0.49916109    -0.10670
H1708       H  0.82530691  0.55982785  0.49331567     0.09020
H1709       H  0.79242608  0.66564301  0.49251467     0.06540
H1710       H  0.90075620  0.64241090  0.50264637     0.06390
C1711       C  0.59836976  0.59851981  0.49803278     0.03430
C1712       C  0.63345079  0.58851005  0.49650527    -0.12720
C1713       C  0.65960981  0.61351573  0.49667765     0.00930
C1714       C  0.65099596  0.64872000  0.49841093    -0.11250
C1715       C  0.61636976  0.65921327  0.49961854     0.03420
C1716       C  0.59004766  0.63418848  0.49934789    -0.10670
H1717       H  0.64063934  0.56134707  0.49538331     0.09020
H1718       H  0.67135962  0.66807247  0.49866475     0.06540
H1719       H  0.56331980  0.64259591  0.50043192     0.06390
C1720       C  0.59892416  0.86778195  0.00063713     0.03430
C1721       C  0.63403029  0.87770753  0.00009127    -0.12720
C1722       C  0.66013291  0.85259261  0.99985987     0.00930
C1723       C  0.65144505  0.81738220  0.00045798    -0.11250
C1724       C  0.61679667  0.80699306  0.00101724     0.03420
C1725       C  0.59053479  0.83211549  0.00097993    -0.10670
H1726       H  0.64126330  0.90486609  0.99968663     0.09020
H1727       H  0.67176925  0.79795387  0.00035602     0.06540
H1728       H  0.56378170  0.82376465  0.00133681     0.06390
C1729       C  0.86743860  0.98059372  0.38484882     0.03430
C1730       C  0.83226568  0.98076173  0.39474518    -0.12720
C1731       C  0.80617908  0.98303536  0.36965659     0.00930
C1732       C  0.81510055  0.98418951  0.33460121    -0.11250
C1733       C  0.84971974  0.98460329  0.32407692     0.03420
C1734       C  0.87591430  0.98219266  0.34922587    -0.10670
H1735       H  0.82504433  0.98038338  0.42186575     0.09020
H1736       H  0.79471788  0.98562411  0.31526833     0.06540
H1737       H  0.90269495  0.98285250  0.34104709     0.06390
C1738       C  0.59866186  0.98338971  0.38486304     0.03430
C1739       C  0.63380325  0.98547929  0.39477245    -0.12720
C1740       C  0.65983367  0.98581250  0.36966887     0.00930
C1741       C  0.65096479  0.98317416  0.33462334    -0.11250
C1742       C  0.61639476  0.98024831  0.32415842     0.03420
C1743       C  0.59018377  0.98099348  0.34925650    -0.10670
H1744       H  0.64106625  0.98738474  0.42185631     0.09020
H1745       H  0.67127744  0.98317699  0.31526290     0.06540
H1746       H  0.56345268  0.97889323  0.34102075     0.06390
C1747       C  0.59925905  0.98335052  0.11535693     0.03430
C1748       C  0.59062805  0.98207676  0.15095241    -0.12720
C1749       C  0.61667679  0.97959920  0.17624925     0.00930
C1750       C  0.65134903  0.97907746  0.16587108    -0.11250
C1751       C  0.66044668  0.98023777  0.13085119     0.03420
C1752       C  0.63448372  0.98285631  0.10563306    -0.10670
H1753       H  0.56380743  0.98189833  0.15901976     0.09020
H1754       H  0.67161129  0.97735643  0.18530980     0.06540
H1755       H  0.64182969  0.98339863  0.07854990     0.06390
C1756       C  0.86809699  0.98378309  0.11539530     0.03430
C1757       C  0.87669136  0.98588091  0.15098860    -0.12720
C1758       C  0.85058106  0.98603039  0.17620061     0.00930
C1759       C  0.81596935  0.98310226  0.16580005    -0.11250
C1760       C  0.80698714  0.98086093  0.13076043     0.03420
C1761       C  0.83293849  0.98157516  0.10558025    -0.10670
H1762       H  0.90344021  0.98808556  0.15913570     0.09020
H1763       H  0.79570931  0.98271348  0.18521101     0.06540
H1764       H  0.82560668  0.97980316  0.07850619     0.06390
C1765       C  0.98315908  0.59827803  0.38437705     0.03430
C1766       C  0.98179010  0.63365128  0.39377520    -0.12720
C1767       C  0.98199448  0.65939988  0.36826524     0.00930
C1768       C  0.98410698  0.65008111  0.33335517    -0.11250
C1769       C  0.98572632  0.61518167  0.32350126     0.03420
C1770       C  0.98483679  0.58926764  0.34893680    -0.10670
H1771       H  0.98036883  0.64132896  0.42076337     0.09020
H1772       H  0.98454172  0.67019145  0.31368295     0.06540
H1773       H  0.98618398  0.56231499  0.34103561     0.06390
C1774       C  0.98270311  0.86727490  0.38463080     0.03430
C1775       C  0.98195119  0.83183429  0.39371967    -0.12720
C1776       C  0.98165878  0.80629016  0.36793029     0.00930
C1777       C  0.98254543  0.81592263  0.33301813    -0.11250
C1778       C  0.98360766  0.85090782  0.32359043     0.03420
C1779       C  0.98346997  0.87656275  0.34925640    -0.10670
H1780       H  0.98131336  0.82395705  0.42067440     0.09020
H1781       H  0.98249207  0.79606851  0.31306480     0.06540
H1782       H  0.98420305  0.90357840  0.34151559     0.06390
C1783       C  0.98273010  0.59873509  0.11550741     0.03430
C1784       C  0.98496285  0.58954997  0.15089093    -0.12720
C1785       C  0.98578954  0.61530337  0.17648677     0.00930
C1786       C  0.98331031  0.65019200  0.16690458    -0.11250
C1787       C  0.98070658  0.65976192  0.13206176     0.03420
C1788       C  0.98083810  0.63414290  0.10634049    -0.10670
H1789       H  0.98674327  0.56258198  0.15863453     0.09020
H1790       H  0.98348403  0.67012835  0.18678112     0.06540
H1791       H  0.97892827  0.64190435  0.07940739     0.06390
C1792       C  0.98458033  0.86773267  0.11578852     0.03430
C1793       C  0.98546820  0.87712015  0.15114489    -0.12720
C1794       C  0.98438256  0.85156832  0.17684863     0.00930
C1795       C  0.98205786  0.81665347  0.16749013    -0.11250
C1796       C  0.98099039  0.80682774  0.13259685     0.03420
C1797       C  0.98274157  0.83226716  0.10675523    -0.10670
H1798       H  0.98691163  0.90412901  0.15883779     0.09020
H1799       H  0.98098676  0.79696327  0.18755590     0.06540
H1800       H  0.98179267  0.82434865  0.07981130     0.06390
O1801       O  0.88575607  0.92630897  0.50023976    -0.86190
O1802       O  0.58112849  0.92671454  0.50060130    -0.86360
O1803       O  0.98277147  0.88432976  0.44379808    -0.88020
O1804       O  0.98430811  0.88458202  0.05663305    -0.86780
O1805       O  0.98452135  0.92684022  0.09851602    -0.86370
O1806       O  0.98295612  0.92636308  0.40174295    -0.87740
O1807       O  0.53963233  0.88423163  0.50053314    -0.86220
O1808       O  0.92716735  0.88369886  0.50037218    -0.85810
Zr1809     Zr  0.98335113  0.91279119  0.50021571     2.84310
O1810       O  0.51835919  0.94791537  0.03525529    -1.07780
O1811       O  0.94833686  0.94758000  0.46498048    -1.08510
C1812       C  0.89537069  0.89417664  0.50034432     1.06920
C1813       C  0.57141439  0.89461790  0.50064528     1.06860
C1814       C  0.98277396  0.89440962  0.41184018     1.09840
C1815       C  0.98461263  0.89481369  0.08853705     1.07620
H1816       H  0.53273640  0.93320250  0.45056902     0.33180
O1817       O  0.51824323  0.94763906  0.46496616    -1.28730
H1818       H  0.93410748  0.93337963  0.04994011     0.32840
O1819       O  0.94848317  0.94776664  0.03541446    -1.30410
O1820       O  0.58073252  0.53963647  0.49884345    -0.86180
O1821       O  0.88528826  0.53913367  0.49895520    -0.87680
O1822       O  0.53934768  0.98312684  0.40139829    -0.86260
O1823       O  0.53993008  0.98353332  0.09861442    -0.86310
O1824       O  0.92735899  0.98365817  0.09876145    -0.86020
O1825       O  0.92678465  0.98136984  0.40146035    -0.85830
O1826       O  0.98309062  0.58117753  0.44340447    -0.86200
O1827       O  0.98240098  0.58160812  0.05634995    -0.85660
O1828       O  0.98312604  0.53904972  0.40139123    -0.86720
O1829       O  0.98304681  0.53960031  0.09843665    -0.85880
O1830       O  0.58105401  0.98343887  0.44375421    -0.86280
O1831       O  0.88525516  0.98102940  0.44378380    -0.86000
O1832       O  0.88557728  0.98361762  0.05646124    -0.85650
O1833       O  0.58149866  0.98356267  0.05633233    -0.86060
O1834       O  0.53902796  0.58198378  0.49899950    -0.86360
O1835       O  0.92647665  0.58190709  0.49911832    -0.87700
Zr1836     Zr  0.55268386  0.98314622  0.50005410     2.83100
Zr1837     Zr  0.91385089  0.98278090  0.50009119     2.83500
Zr1838     Zr  0.98312782  0.98274360  0.43006437     2.84090
Zr1839     Zr  0.98352172  0.98322899  0.07003534     2.83360
Zr1840     Zr  0.98284793  0.55314313  0.49990426     2.84220
O1841       O  0.94819676  0.51825513  0.03522431    -1.08270
O1842       O  0.51789141  0.51817824  0.46489481    -1.07770
C1843       C  0.57087037  0.57168967  0.49859735     1.06890
C1844       C  0.89474152  0.57130840  0.49856851     1.09510
C1845       C  0.57120083  0.98336596  0.41170537     1.07060
C1846       C  0.57175806  0.98360372  0.08837602     1.07420
C1847       C  0.89549143  0.98375985  0.08849694     1.07010
C1848       C  0.89498283  0.98082226  0.41174370     1.06560
C1849       C  0.98313564  0.57104167  0.41146720     1.06980
C1850       C  0.98265407  0.57155260  0.08832259     1.06500
H1851       H  0.93348167  0.53219259  0.45014797     0.33180
O1852       O  0.94805386  0.51796894  0.46473032    -1.29370
H1853       H  0.53265585  0.53307699  0.04944373     0.33200
O1854       O  0.51817973  0.51851309  0.03510786    -1.30750
C1855       C  0.94876067  0.71516073  0.13633029    -0.21010
C1856       C  0.97741004  0.69688090  0.12362198    -0.09050
C1857       C  0.50498125  0.71517161  0.10853443     0.29810
C1858       C  0.50490341  0.75154756  0.10875469    -0.21010
C1859       C  0.97741144  0.76970980  0.12412099    -0.09060
C1860       C  0.94867482  0.75130751  0.13655537     0.29820
F1861       F  0.92154787  0.76836484  0.15100316    -0.19580
H1862       H  0.92736460  0.70134656  0.14804029     0.18180
H1863       H  0.52733020  0.76543696  0.09929203     0.18190
F1864       F  0.53318676  0.69797912  0.09653155    -0.19570
C1865       C  0.95420764  0.86572296  0.26823847    -0.21010
C1866       C  0.98501995  0.85983132  0.28658260    -0.09050
C1867       C  0.51630468  0.85649458  0.26848838     0.29810
C1868       C  0.51637422  0.85681963  0.23228139    -0.21010
C1869       C  0.98526286  0.86042795  0.21388994    -0.09060
C1870       C  0.95426381  0.86591820  0.23198025     0.29820
F1871       F  0.92380677  0.86855566  0.21458756    -0.19580
H1872       H  0.92986831  0.86782226  0.28195225     0.18180
H1873       H  0.54033710  0.85204484  0.21856273     0.18190
F1874       F  0.54631469  0.85048131  0.28583491    -0.19570
C1875       C  0.51757937  0.62030620  0.26822846    -0.21010
C1876       C  0.98921684  0.60686223  0.28636687    -0.09050
C1877       C  0.96221978  0.59072575  0.26795006     0.29810
C1878       C  0.96246399  0.59072096  0.23159460    -0.21010
C1879       C  0.98957050  0.60684342  0.21357138    -0.09060
C1880       C  0.51782808  0.62030334  0.23212119     0.29820
F1881       F  0.54455212  0.63558752  0.21522639    -0.19580
H1882       H  0.53860143  0.63272534  0.28211230     0.18180
H1883       H  0.94038339  0.58048641  0.21759292     0.18190
F1884       F  0.93432149  0.57788318  0.28495636    -0.19570
C1885       C  0.51063152  0.71466240  0.38482629    -0.21010
C1886       C  0.98015634  0.69644356  0.37715414    -0.09050
C1887       C  0.94924007  0.71474128  0.37156639     0.29810
C1888       C  0.94935611  0.75096208  0.37128797    -0.21010
C1889       C  0.98026784  0.76919877  0.37663932    -0.09060
C1890       C  0.51074179  0.75096851  0.38455415     0.29820
F1891       F  0.54102661  0.76819736  0.38911108    -0.19580
H1892       H  0.53473088  0.70078748  0.38864863     0.18180
H1893       H  0.92578500  0.76479412  0.36485773     0.18190
F1894       F  0.91955370  0.69752184  0.36394956    -0.19570
C1895       C  0.75204120  0.94813695  0.13323345    -0.21010
C1896       C  0.77009304  0.97737700  0.12154816    -0.09050
C1897       C  0.75165073  0.50529088  0.10698341     0.29810
C1898       C  0.71534550  0.50505393  0.10707911    -0.21010
C1899       C  0.69739447  0.97698506  0.12169851    -0.09060
C1900       C  0.71599561  0.94782905  0.13322356     0.29820
F1901       F  0.69920406  0.92009451  0.14686307    -0.19580
H1902       H  0.76593228  0.92642930  0.14446793     0.18180
H1903       H  0.70136983  0.52777665  0.09822684     0.18190
F1904       F  0.76862838  0.53394278  0.09569229    -0.19570
C1905       C  0.58957911  0.00072178  0.26840441    -0.21010
C1906       C  0.60887803  0.97580310  0.28676316    -0.09050
C1907       C  0.62554633  0.94917038  0.26834971     0.29810
C1908       C  0.62540438  0.94917147  0.23225483    -0.21010
C1909       C  0.60890296  0.97581245  0.21369225    -0.09060
C1910       C  0.58956702  0.00080198  0.23196212     0.29820
F1911       F  0.57322474  0.52684822  0.21479593    -0.19580
H1912       H  0.57661966  0.52146888  0.28220149     0.18180
H1913       H  0.63996959  0.92935555  0.21868191     0.18190
F1914       F  0.64381088  0.92429715  0.28534867    -0.19570
C1915       C  0.87772696  0.96531714  0.26842045    -0.21010
C1916       C  0.85731999  0.98935025  0.28670301    -0.09050
C1917       C  0.84017445  0.01573568  0.26820353     0.29810
C1918       C  0.84052783  0.01592520  0.23212410    -0.21010
C1919       C  0.85813474  0.99005521  0.21365132    -0.09060
C1920       C  0.87821656  0.96566951  0.23197832     0.29820
F1921       F  0.89584463  0.94057321  0.21476064    -0.19580
H1922       H  0.89128586  0.94491246  0.28219454     0.18180
H1923       H  0.82536876  0.53526022  0.21845757     0.18190
F1924       F  0.82132841  0.54022804  0.28505972    -0.19570
C1925       C  0.75165234  0.51643550  0.36669655    -0.21010
C1926       C  0.76936358  0.98708958  0.37894793    -0.09050
C1927       C  0.75060537  0.95996042  0.39438745     0.29810
C1928       C  0.71431011  0.96093847  0.39437270    -0.21010
C1929       C  0.69672541  0.98892855  0.37897805    -0.09060
C1930       C  0.71564900  0.51736854  0.36659250     0.29820
F1931       F  0.69922671  0.54486714  0.35192878    -0.19580
H1932       H  0.76577793  0.53765436  0.35494350     0.18180
H1933       H  0.70000109  0.93873745  0.40385930     0.18190
F1934       F  0.76713923  0.93129316  0.40643468    -0.19570
C1935       C  0.60361180  0.71516097  0.47011204    -0.21010
C1936       C  0.60851796  0.69663028  0.00102947    -0.09050
C1937       C  0.61179042  0.71475898  0.03246045     0.29810
C1938       C  0.61196006  0.75105712  0.03263209    -0.21010
C1939       C  0.60887709  0.76959312  0.00148806    -0.09060
C1940       C  0.60385819  0.75149240  0.47027722     0.29820
F1941       F  0.60167070  0.76891632  0.43977731    -0.19580
H1942       H  0.60161966  0.70147761  0.44564263     0.18180
H1943       H  0.61634685  0.76472334  0.05679964     0.18190
F1944       F  0.61696095  0.69732261  0.06260600    -0.19570
C1945       C  0.71547303  0.60336334  0.02650151    -0.21010
C1946       C  0.69631578  0.60353152  0.49563244    -0.09050
C1947       C  0.71340073  0.59994249  0.46372835     0.29810
C1948       C  0.74959544  0.59912633  0.46269787    -0.21010
C1949       C  0.76879349  0.60156163  0.49350856    -0.09060
C1950       C  0.75154771  0.60229875  0.02549656     0.29820
F1951       F  0.76972590  0.60514747  0.05552705    -0.19580
H1952       H  0.70255034  0.60632783  0.05122360     0.18180
H1953       H  0.76262423  0.59909875  0.43786279     0.18190
F1954       F  0.69518654  0.60008843  0.43359237    -0.19570
C1955       C  0.71516696  0.86627508  0.03010693    -0.21010
C1956       C  0.69684882  0.86243378  0.99893424    -0.09050
C1957       C  0.71482331  0.86227009  0.46736122     0.29810
C1958       C  0.75097212  0.86296587  0.46723441    -0.21010
C1959       C  0.76935927  0.86396106  0.99855993    -0.09060
C1960       C  0.75131764  0.86706626  0.02997268     0.29820
F1961       F  0.76870470  0.86773375  0.06059199    -0.19580
H1962       H  0.70155256  0.86624812  0.05462782     0.18180
H1963       H  0.76463092  0.86011097  0.44290477     0.18190
F1964       F  0.69746067  0.85862230  0.43694415    -0.19570
C1965       C  0.87785014  0.71462188  0.98458372    -0.21010
C1966       C  0.85358790  0.69589805  0.50430659    -0.09050
C1967       C  0.83233417  0.71402888  0.52770836     0.29810
C1968       C  0.83309425  0.75008883  0.52904010    -0.21010
C1969       C  0.85467705  0.76917418  0.50688299    -0.09060
C1970       C  0.87846254  0.75111220  0.98581968     0.29820
F1971       F  0.90027672  0.76857380  0.96456084    -0.19580
H1972       H  0.89468035  0.70116134  0.96662880     0.18180
H1973       H  0.81536932  0.76328416  0.54633334     0.18190
F1974       F  0.80955613  0.69690581  0.54828590    -0.19570
C1975       C  0.86749673  0.86764997  0.00051228     0.03430
C1976       C  0.83259155  0.87831983  0.49893517    -0.12720
C1977       C  0.80602737  0.85384589  0.49903204     0.00930
C1978       C  0.81398337  0.81860385  0.50066383    -0.11250
C1979       C  0.84838998  0.80709735  0.00316373     0.03420
C1980       C  0.87520694  0.83180052  0.00274128    -0.10670
H1981       H  0.82583777  0.90558724  0.49768489     0.09020
H1982       H  0.79297941  0.79995782  0.50030263     0.06540
H1983       H  0.90179320  0.82317510  0.00489760     0.06390
C1984       C  0.86682237  0.59781652  0.99695403     0.03430
C1985       C  0.83199652  0.58716083  0.99393364    -0.12720
C1986       C  0.80545266  0.61170680  0.99237770     0.00930
C1987       C  0.81338812  0.64696565  0.99369124    -0.11250
C1988       C  0.84750736  0.65832907  0.99833950     0.03420
C1989       C  0.87436908  0.63368619  0.99914878    -0.10670
H1990       H  0.82528000  0.55987428  0.99330176     0.09020
H1991       H  0.79246904  0.66571495  0.99253462     0.06540
H1992       H  0.90078310  0.64240650  0.00263228     0.06390
C1993       C  0.59835952  0.59852082  0.99803307     0.03430
C1994       C  0.63344545  0.58852498  0.99650658    -0.12720
C1995       C  0.65959473  0.61354347  0.99667797     0.00930
C1996       C  0.65096386  0.64874367  0.99840981    -0.11250
C1997       C  0.61633292  0.65921998  0.99961768     0.03420
C1998       C  0.59002300  0.63418507  0.99934767    -0.10670
H1999       H  0.64064404  0.56136469  0.99538553     0.09020
H2000       H  0.67131790  0.66810634  0.99866287     0.06540
H2001       H  0.56329191  0.64258242  0.00043152     0.06390
C2002       C  0.59894986  0.86778263  0.50063324     0.03430
C2003       C  0.63404844  0.87772872  0.50009385    -0.12720
C2004       C  0.66016457  0.85263174  0.49986653     0.00930
C2005       C  0.65150044  0.81741459  0.50046112    -0.11250
C2006       C  0.61685797  0.80700261  0.50101254     0.03420
C2007       C  0.59058060  0.83211080  0.50097144    -0.10670
H2008       H  0.64126668  0.90489141  0.49969243     0.09020
H2009       H  0.67183766  0.79800006  0.50036268     0.06540
H2010       H  0.56383194  0.82374565  0.50132355     0.06390
C2011       C  0.86742404  0.98060504  0.88484441     0.03430
C2012       C  0.83225056  0.98076947  0.89473844    -0.12720
C2013       C  0.80616494  0.98303743  0.86964815     0.00930
C2014       C  0.81508833  0.98419049  0.83459288    -0.11250
C2015       C  0.84970844  0.98460629  0.82407076     0.03420
C2016       C  0.87590156  0.98220128  0.84922179    -0.10670
H2017       H  0.82502784  0.98039253  0.92185865     0.09020
H2018       H  0.79470679  0.98562229  0.81525863     0.06540
H2019       H  0.90268265  0.98286304  0.84104461     0.06390
C2020       C  0.59864569  0.98338950  0.88486467     0.03430
C2021       C  0.63378681  0.98547925  0.89477621    -0.12720
C2022       C  0.65981866  0.98581070  0.86967408     0.00930
C2023       C  0.65095154  0.98317012  0.83462856    -0.11250
C2024       C  0.61638237  0.98024380  0.82416162     0.03420
C2025       C  0.59016962  0.98099090  0.84925783    -0.10670
H2026       H  0.64104841  0.98738686  0.92186028     0.09020
H2027       H  0.67126533  0.98317234  0.81526929     0.06540
H2028       H  0.56343897  0.97889073  0.84102059     0.06390
C2029       C  0.59927475  0.98335073  0.61535847     0.03430
C2030       C  0.59064157  0.98207763  0.65095354    -0.12720
C2031       C  0.61668851  0.97960129  0.67625241     0.00930
C2032       C  0.65136163  0.97907993  0.66587645    -0.11250
C2033       C  0.66046115  0.98024090  0.63085681     0.03420
C2034       C  0.63449973  0.98285827  0.60563704    -0.10670
H2035       H  0.56382043  0.98189813  0.65901912     0.09020
H2036       H  0.67162275  0.97735854  0.68531630     0.06540
H2037       H  0.64184721  0.98340014  0.57855428     0.06390
C2038       C  0.86811179  0.98376321  0.61539070     0.03430
C2039       C  0.87670414  0.98586721  0.65098420    -0.12720
C2040       C  0.85059189  0.98602636  0.67619425     0.00930
C2041       C  0.81598073  0.98310164  0.66579157    -0.11250
C2042       C  0.80700080  0.98085293  0.63075217     0.03420
C2043       C  0.83295369  0.98155693  0.60557358    -0.10670
H2044       H  0.90345273  0.98807005  0.65913265     0.09020
H2045       H  0.79571902  0.98271981  0.68520095     0.06540
H2046       H  0.82562327  0.97977993  0.57849947     0.06390
C2047       C  0.98315369  0.59829018  0.88437632     0.03430
C2048       C  0.98178770  0.63366372  0.89377284    -0.12720
C2049       C  0.98199679  0.65941124  0.86826187     0.00930
C2050       C  0.98411085  0.65009107  0.83335212    -0.11250
C2051       C  0.98572668  0.61519091  0.82349968     0.03420
C2052       C  0.98483273  0.58927821  0.84893647    -0.10670
H2053       H  0.98036485  0.64134248  0.92076061     0.09020
H2054       H  0.98454838  0.67020064  0.81367920     0.06540
H2055       H  0.98617735  0.56232508  0.84103650     0.06390
C2056       C  0.98268229  0.86728638  0.88463651     0.03430
C2057       C  0.98193401  0.83184611  0.89372698    -0.12720
C2058       C  0.98165408  0.80630103  0.86793861     0.00930
C2059       C  0.98254870  0.81593198  0.83302646    -0.11250
C2060       C  0.98360421  0.85091678  0.82359716     0.03420
C2061       C  0.98345413  0.87657293  0.84926180    -0.10670
H2062       H  0.98129119  0.82396987  0.92068188     0.09020
H2063       H  0.98250444  0.79607682  0.81307414     0.06540
H2064       H  0.98418305  0.90358836  0.84151985     0.06390
C2065       C  0.98273550  0.59872184  0.61550707     0.03430
C2066       C  0.98496741  0.58953857  0.65089094    -0.12720
C2067       C  0.98578954  0.61529351  0.67648530     0.00930
C2068       C  0.98330637  0.65018129  0.66690145    -0.11250
C2069       C  0.98070370  0.65974964  0.63205833     0.03420
C2070       C  0.98083977  0.63412934  0.60633828    -0.10670
H2071       H  0.98675104  0.56257117  0.65863585     0.09020
H2072       H  0.98347741  0.67011849  0.68677718     0.06540
H2073       H  0.97893114  0.64188952  0.57940475     0.06390
C2074       C  0.98459948  0.86772000  0.61579313     0.03430
C2075       C  0.98548290  0.87710897  0.65114936    -0.12720
C2076       C  0.98438572  0.85155885  0.67685456     0.00930
C2077       C  0.98205450  0.81664384  0.66749737    -0.11250
C2078       C  0.98099413  0.80681631  0.63260411     0.03420
C2079       C  0.98275676  0.83225430  0.60676161    -0.10670
H2080       H  0.98693062  0.90411794  0.65884105     0.09020
H2081       H  0.98097522  0.79695497  0.68756394     0.06540
H2082       H  0.98181251  0.82433467  0.57981786     0.06390
O2083       O  0.88571717  0.92633212  0.00024329    -0.86190
O2084       O  0.58111905  0.92672155  0.00060292    -0.86360
O2085       O  0.98274684  0.88434350  0.94380283    -0.88020
O2086       O  0.98433200  0.88456749  0.55663600    -0.86780
O2087       O  0.98454283  0.92682695  0.59851786    -0.86370
O2088       O  0.98293410  0.92637492  0.90174598    -0.87740
O2089       O  0.53961188  0.88424976  0.00053689    -0.86220
O2090       O  0.92714165  0.88373432  0.00037399    -0.85810
Zr2091     Zr  0.98333125  0.91281029  0.00021682     2.84310
O2092       O  0.51837840  0.94790390  0.53525289    -1.07780
O2093       O  0.94831713  0.94759644  0.96498067    -1.08510
C2094       C  0.89534200  0.89420280  0.00034650     1.06920
C2095       C  0.57139728  0.89462755  0.00064856     1.06860
C2096       C  0.98275019  0.89442200  0.91184460     1.09840
C2097       C  0.98463536  0.89480009  0.58854000     1.07620
H2098       H  0.53271529  0.93321051  0.95056878     0.33180
O2099       O  0.51822410  0.94764963  0.96496540    -1.28730
H2100       H  0.93412774  0.93336179  0.54993882     0.32840
O2101       O  0.94850318  0.94774916  0.53541325    -1.30410
O2102       O  0.58072974  0.53963378  0.99884383    -0.86180
O2103       O  0.88526282  0.53914729  0.99894604    -0.87680
O2104       O  0.53933021  0.98313315  0.90139783    -0.86260
O2105       O  0.53994731  0.98352579  0.59861369    -0.86310
O2106       O  0.92737457  0.98363823  0.59875934    -0.86020
O2107       O  0.92676924  0.98138544  0.90145870    -0.85830
O2108       O  0.98308154  0.58119068  0.94340488    -0.86200
O2109       O  0.98241191  0.58159420  0.55635112    -0.85660
O2110       O  0.98311242  0.53906279  0.90139179    -0.86720
O2111       O  0.98305947  0.53958581  0.59843728    -0.85880
O2112       O  0.58103607  0.98344048  0.94375422    -0.86280
O2113       O  0.88523830  0.98104473  0.94378084    -0.86000
O2114       O  0.88559415  0.98359373  0.55645801    -0.85650
O2115       O  0.58151632  0.98356098  0.55633202    -0.86060
O2116       O  0.53902187  0.58197811  0.99899810    -0.86360
O2117       O  0.92646296  0.58190988  0.99911053    -0.87700
Zr2118     Zr  0.55266877  0.98315078  0.00005446     2.83100
Zr2119     Zr  0.91383038  0.98279694  0.00009133     2.83500
Zr2120     Zr  0.98311159  0.98275639  0.93006447     2.84090
Zr2121     Zr  0.98353820  0.98321452  0.57003482     2.83360
Zr2122     Zr  0.98283492  0.55315281  0.99990369     2.84220
O2123       O  0.94821517  0.51824056  0.53522544    -1.08270
O2124       O  0.51787814  0.51818377  0.96489528    -1.07770
C2125       C  0.57086518  0.57168595  0.99859697     1.06890
C2126       C  0.89472548  0.57131862  0.99855766     1.09510
C2127       C  0.57118333  0.98336869  0.91170548     1.07060
C2128       C  0.57177526  0.98360056  0.58837586     1.07420
C2129       C  0.89550732  0.98373746  0.58849384     1.07010
C2130       C  0.89496707  0.98083710  0.91174090     1.06560
C2131       C  0.98312582  0.57105472  0.91146747     1.06980
C2132       C  0.98266423  0.57153834  0.58832336     1.06500
H2133       H  0.93346588  0.53220728  0.95014733     0.33180
O2134       O  0.94803571  0.51798245  0.96473071    -1.29370
H2135       H  0.53266860  0.53307095  0.54944454     0.33200
O2136       O  0.51819306  0.51850669  0.53510842    -1.30750
C2137       C  0.94875853  0.71514911  0.63632753    -0.21010
C2138       C  0.97740717  0.69686876  0.62361800    -0.09050
C2139       C  0.50497993  0.71516043  0.60853510     0.29810
C2140       C  0.50490467  0.75153634  0.60876003    -0.21010
C2141       C  0.97741403  0.76969812  0.62412781    -0.09060
C2142       C  0.94867555  0.75129602  0.63655839     0.29820
F2143       F  0.92154884  0.76835308  0.65100691    -0.19580
H2144       H  0.92736115  0.70133487  0.64803506     0.18180
H2145       H  0.52733265  0.76542523  0.59929946     0.18190
F2146       F  0.53318493  0.69796758  0.59653148    -0.19570
C2147       C  0.95420786  0.86572799  0.76824263    -0.21010
C2148       C  0.98501920  0.85983779  0.78658881    -0.09050
C2149       C  0.51630423  0.85649572  0.76849631     0.29810
C2150       C  0.51637507  0.85681490  0.73228918    -0.21010
C2151       C  0.98526430  0.86042104  0.71389571    -0.09060
C2152       C  0.95426500  0.86591613  0.73198432     0.29820
F2153       F  0.92380850  0.86855230  0.71459057    -0.19580
H2154       H  0.92986818  0.86783075  0.78195528     0.18180
H2155       H  0.54033831  0.85203717  0.71857218     0.18190
F2156       F  0.54631330  0.85048358  0.78584493    -0.19570
C2157       C  0.51757909  0.62031018  0.76822637    -0.21010
C2158       C  0.98921671  0.60686845  0.78636571    -0.09050
C2159       C  0.96222066  0.59072755  0.76795107     0.29810
C2160       C  0.96246536  0.59071667  0.73159566    -0.21010
C2161       C  0.98957158  0.60683695  0.71357028    -0.09060
C2162       C  0.51782828  0.62030132  0.73211910     0.29820
F2163       F  0.54455163  0.63558417  0.71522195    -0.19580
H2164       H  0.53860071  0.63273206  0.78210842     0.18180
H2165       H  0.94038521  0.58047929  0.71759532     0.18190
F2166       F  0.93432267  0.57788642  0.78495889    -0.19570
C2167       C  0.51063426  0.71467355  0.88482230    -0.21010
C2168       C  0.98015896  0.69645486  0.87715042    -0.09050
C2169       C  0.94924093  0.71475147  0.87156909     0.29810
C2170       C  0.94935454  0.75097224  0.87129739    -0.21010
C2171       C  0.98026582  0.76920987  0.87664758    -0.09060
C2172       C  0.51074218  0.75097971  0.88455511     0.29820
F2173       F  0.54102651  0.76820998  0.88910947    -0.19580
H2174       H  0.53473485  0.70079958  0.88864017     0.18180
H2175       H  0.92578194  0.76480385  0.86487172     0.18190
F2176       F  0.91955492  0.69753155  0.86395200    -0.19570
C2177       C  0.75205412  0.94813248  0.63322680    -0.21010
C2178       C  0.77010693  0.97737121  0.62153991    -0.09050
C2179       C  0.75166570  0.50528841  0.60697935     0.29810
C2180       C  0.71536052  0.50505544  0.60708176    -0.21010
C2181       C  0.69740876  0.97698760  0.62170434    -0.09060
C2182       C  0.71600862  0.94782912  0.63322488     0.29820
F2183       F  0.69921667  0.92009601  0.64686671    -0.19580
H2184       H  0.76594491  0.92642294  0.64445799     0.18180
H2185       H  0.70138564  0.52777989  0.59823266     0.18190
F2186       F  0.76864450  0.53393948  0.59568803    -0.19570
C2187       C  0.58957372  0.00071775  0.76840485    -0.21010
C2188       C  0.60886958  0.97579840  0.78676572    -0.09050
C2189       C  0.62554300  0.94916783  0.76835373     0.29810
C2190       C  0.62540968  0.94917226  0.73225880    -0.21010
C2191       C  0.60891077  0.97581374  0.71369475    -0.09060
C2192       C  0.58956947  0.00080076  0.73196260     0.29820
F2193       F  0.57322942  0.52684753  0.71479428    -0.19580
H2194       H  0.57661033  0.52146330  0.78219986     0.18180
H2195       H  0.63997863  0.92935802  0.71868751     0.18190
F2196       F  0.64380509  0.92429419  0.78535483    -0.19570
C2197       C  0.87772300  0.96531710  0.76841865    -0.21010
C2198       C  0.85731225  0.98935033  0.78669704    -0.09050
C2199       C  0.84017006  0.01573523  0.76819389     0.29810
C2200       C  0.84053186  0.01592519  0.73211451    -0.21010
C2201       C  0.85814212  0.99005472  0.71364533    -0.09060
C2202       C  0.87821981  0.96566892  0.73197659     0.29820
F2203       F  0.89585034  0.94057174  0.71476266    -0.19580
H2204       H  0.89127956  0.94491285  0.78219568     0.18180
H2205       H  0.82537580  0.53526017  0.71844337     0.18190
F2206       F  0.82132000  0.54022699  0.78504454    -0.19570
C2207       C  0.75163512  0.51643350  0.86668656    -0.21010
C2208       C  0.76934876  0.98708891  0.87893888    -0.09050
C2209       C  0.75059290  0.95996078  0.89438347     0.29810
C2210       C  0.71429753  0.96093916  0.89437518    -0.21010
C2211       C  0.69671037  0.98892899  0.87898294    -0.09060
C2212       C  0.71563183  0.51736789  0.86659098     0.29820
F2213       F  0.69920715  0.54486630  0.85192955    -0.19580
H2214       H  0.76575886  0.53765163  0.85492997     0.18180
H2215       H  0.69998998  0.93873841  0.90386462     0.18190
F2216       F  0.76712856  0.93129435  0.90643037    -0.19570
C2217       C  0.60355521  0.71516026  0.97011131    -0.21010
C2218       C  0.60857532  0.69662981  0.50102981    -0.09050
C2219       C  0.61187078  0.71476093  0.53245751     0.29810
C2220       C  0.61205248  0.75105976  0.53262675    -0.21010
C2221       C  0.60895885  0.76959624  0.50148367    -0.09060
C2222       C  0.60378925  0.75149089  0.97027897     0.29820
F2223       F  0.60160879  0.76891631  0.93977944    -0.19580
H2224       H  0.60157706  0.70147761  0.94564037     0.18180
H2225       H  0.61644941  0.76472605  0.55679240     0.18190
F2226       F  0.61704600  0.69732516  0.56260263    -0.19570
C2227       C  0.71547887  0.60330143  0.52650301    -0.21010
C2228       C  0.69630786  0.60358075  0.99563170    -0.09050
C2229       C  0.71339551  0.60000724  0.96372707     0.29810
C2230       C  0.74959116  0.59920711  0.96269610    -0.21010
C2231       C  0.76878960  0.60164458  0.99350658    -0.09060
C2232       C  0.75155232  0.60221900  0.52549865     0.29820
F2233       F  0.76973142  0.60506448  0.55552890    -0.19580
H2234       H  0.70255707  0.60627348  0.55122469     0.18180
H2235       H  0.76261970  0.59918284  0.93786092     0.18190
F2236       F  0.69518117  0.60014803  0.93359116    -0.19570
C2237       C  0.71517884  0.86635985  0.53012450    -0.21010
C2238       C  0.69686984  0.86250449  0.49894846    -0.09050
C2239       C  0.71480020  0.86217252  0.96734520     0.29810
C2240       C  0.75095076  0.86285696  0.96721246    -0.21010
C2241       C  0.76937342  0.86405721  0.49858581    -0.09060
C2242       C  0.75132836  0.86716744  0.52999583     0.29820
F2243       F  0.76871103  0.86784685  0.56061743    -0.19580
H2244       H  0.70156019  0.86632573  0.55464303     0.18180
H2245       H  0.76460504  0.85999610  0.94288100     0.18190
F2246       F  0.69743173  0.85851860  0.93693209    -0.19570
C2247       C  0.87778220  0.71460927  0.48457864    -0.21010
C2248       C  0.85366112  0.69591484  0.00432247    -0.09050
C2249       C  0.83244142  0.71404120  0.02775633     0.29810
C2250       C  0.83320848  0.75009905  0.02909413    -0.21010
C2251       C  0.85476535  0.76918193  0.00691167    -0.09060
C2252       C  0.87838466  0.75110077  0.48580532     0.29820
F2253       F  0.90020687  0.76855978  0.46455324    -0.19580
H2254       H  0.89463079  0.70114903  0.46664093     0.18180
H2255       H  0.81549675  0.76329597  0.04639992     0.18190
F2256       F  0.80967909  0.69691628  0.04834929    -0.19570
loop_ 
_geom_bond_atom_site_label_1 
_geom_bond_atom_site_label_2 
_geom_bond_distance 
_geom_bond_site_symmetry_2 
_ccdc_geom_bond_type 
C1            C6   1.416       .  A
C1          C284   1.412       .  A
C1          C120   1.486       .  S
C2            C3   1.395       .  A
C2          C283   1.412   1_556  A
C2            H7   1.083       .  S
C3            C4   1.394   1_556  A
C3          C267   1.470       .  S
C4          C287   1.403       .  A
C4            H8   1.085       .  S
C5            C6   1.408       .  A
C5          C286   1.403       .  A
C5          C277   1.489       .  S
C6            H9   1.083       .  S
C10          C11   1.412       .  A
C10          C15   1.415       .  A
C10         C152   1.486       .  S
C11          C12   1.396       .  A
C11          H16   1.083       .  S
C12          C13   1.394       .  A
C12         C257   1.470       .  S
C13          C14   1.401       .  A
C13          H17   1.085       .  S
C14          C15   1.407       .  A
C14         C274   1.486       .  S
C15          H18   1.083       .  S
C19          C20   1.411       .  A
C19          C24   1.412       .  A
C19         C151   1.484       .  S
C20          C21   1.397       .  A
C20          H25   1.084       .  S
C21          C22   1.398       .  A
C21         C254   1.470       .  S
C22          C23   1.399       .  A
C22          H26   1.085       .  S
C23          C24   1.402       .  A
C23         C526   1.474       .  S
C24          H27   1.083       .  S
C28          C29   1.410       .  A
C28          C33   1.412       .  A
C28         C403   1.483       .  S
C29          C30   1.398   1_554  A
C29          H34   1.084   1_554  S
C30          C31   1.398   1_556  A
C30         C264   1.470       .  S
C31          C32   1.398       .  A
C31          H35   1.085       .  S
C32          C33   1.402       .  A
C32         C247   1.474       .  S
C33          H36   1.083       .  S
C37          C38   1.413       .  A
C37          C42   1.415       .  A
C37         C156   1.485       .  S
C38          C39   1.398       .  A
C38          H43   1.083       .  S
C39          C40   1.397       .  A
C39         C234   1.477       .  S
C40          C41   1.399       .  A
C40          H44   1.085       .  S
C41          C42   1.403       .  A
C41         C224   1.483       .  S
C42          H45   1.083       .  S
C46          C47   1.413       .  A
C46          C51   1.414       .  A
C46         C153   1.485       .  S
C47          C48   1.398       .  A
C47          H52   1.083       .  S
C48          C49   1.397       .  A
C48         C237   1.475       .  S
C49          C50   1.400       .  A
C49          H53   1.085       .  S
C50          C51   1.403       .  A
C50         C214   1.480       .  S
C51          H54   1.083       .  S
C55          C56   1.415       .  A
C55          C60   1.413       .  A
C55         C154   1.486       .  S
C56          C57   1.404       .  A
C56          H61   1.083       .  S
C57          C58   1.400       .  A
C57         C217   1.483       .  S
C58          C59   1.397       .  A
C58          H62   1.085       .  S
C59          C60   1.399       .  A
C59         C207   1.477       .  S
C60          H63   1.083       .  S
C64          C65   1.414       .  A
C64          C69   1.412       .  A
C64         C155   1.484       .  S
C65          C66   1.403       .  A
C65          H70   1.083       .  S
C66          C67   1.400       .  A
C66         C227   1.481       .  S
C67          C68   1.397       .  A
C67          H71   1.085       .  S
C68          C69   1.398       .  A
C68         C204   1.475       .  S
C69          H72   1.083       .  S
C73          C74   1.411       .  A
C73          C78   1.412       .  A
C73         C157   1.481       .  S
C74          C75   1.398       .  A
C74          H79   1.083       .  S
C75          C76   1.396       .  A
C75         C194   1.470       .  S
C76          C77   1.399       .  A
C76          H80   1.085       .  S
C77          C78   1.401       .  A
C77         C184   1.474       .  S
C78          H81   1.083       .  S
C82          C83   1.410       .  A
C82          C87   1.411       .  A
C82         C122   1.481       .  S
C83          C84   1.399       .  A
C83          H88   1.084       .  S
C84          C85   1.397       .  A
C84         C197   1.469       .  S
C85          C86   1.397       .  A
C85          H89   1.085       .  S
C86          C87   1.399       .  A
C86         C174   1.470       .  S
C87          H90   1.084       .  S
C91          C92   1.412       .  A
C91          C96   1.411       .  A
C91         C158   1.482       .  S
C92          C93   1.400       .  A
C92          H97   1.083       .  S
C93          C94   1.398       .  A
C93         C187   1.474       .  S
C94          C95   1.397       .  A
C94          H98   1.085       .  S
C95          C96   1.399       .  A
C95         C164   1.472       .  S
C96          H99   1.083       .  S
C100        C101   1.411       .  A
C100        C105   1.412       .  A
C100        C123   1.481       .  S
C101        C102   1.398       .  A
C101        H106   1.083       .  S
C102        C103   1.396       .  A
C102        C177   1.469       .  S
C103        C104   1.398       .  A
C103        H107   1.085       .  S
C104        C105   1.400       .  A
C104        C167   1.474       .  S
C105        H108   1.083       .  S
O109       Zr145   2.433       .  S
O109        C120   1.292       .  A
O110       Zr144   2.436       .  S
O110        C121   1.293       .  A
O111       Zr117   2.436       .  S
O111        C122   1.293       .  A
O112       Zr399   2.433       .  S
O112        C123   1.292       .  A
O113       Zr147   2.435       .  S
O113        C123   1.292       .  A
O114       Zr146   2.431       .  S
O114        C122   1.292       .  A
O115      Zr1245   2.437   1_455  S
O115        C121   1.292       .  A
O116       Zr117   2.445       .  S
O116        C120   1.293       .  A
Zr117       O394   2.433       .  S
Zr117      O1243   2.437       .  S
Zr117       O119   2.338       .  S
Zr117      O1528   2.341       .  S
Zr117       O409   2.340       .  S
Zr117      O1253   2.342       .  S
O118      Zr1527   2.341   1_455  S
O118       Zr426   2.337       .  S
O118      Zr1275   2.339   1_455  S
O119       Zr145   2.336       .  S
O119       Zr146   2.339       .  S
C121        C310   1.483       .  S
H124        O125   0.966       .  S
O125       Zr144   2.338       .  S
O125      Zr1245   2.342   1_455  S
O125      Zr1274   2.340   1_455  S
H126        O127   0.966       .  S
O127       Zr147   2.340       .  S
O127       Zr399   2.340       .  S
O127       Zr427   2.337       .  S
O128       Zr708   2.433   1_545  S
O128        C151   1.292       .  A
O129       Zr709   2.436   1_545  S
O129        C152   1.293       .  A
O130      Zr1274   2.441   1_455  S
O130        C153   1.293       .  A
O131      Zr1275   2.441   1_455  S
O131        C154   1.293       .  A
O132       Zr147   2.440       .  S
O132        C155   1.293       .  A
O133       Zr146   2.440       .  S
O133        C156   1.293       .  A
O134       Zr148   2.433       .  S
O134        C157   1.292       .  A
O135       Zr430   2.437   1_554  S
O135        C158   1.293       .  A
O136       Zr710   2.436   1_545  S
O136        C157   1.292       .  A
O137       Zr711   2.432   1_545  S
O137        C158   1.292       .  A
O138       Zr144   2.435       .  S
O138        C153   1.293       .  A
O139       Zr145   2.435       .  S
O139        C156   1.293       .  A
O140       Zr427   2.436       .  S
O140        C155   1.293       .  A
O141       Zr426   2.437       .  S
O141        C154   1.293       .  A
O142      Zr1276   2.441   1_455  S
O142        C151   1.293       .  A
O143       Zr148   2.444       .  S
O143        C152   1.293       .  A
Zr144       O692   2.433       .  S
Zr144       O423   2.438       .  S
Zr144       O400   2.337       .  S
Zr144       O714   2.337       .  S
Zr144      O1008   2.338       .  S
Zr145       O693   2.436       .  S
Zr145       O422   2.436       .  S
Zr145       O409   2.337       .  S
Zr145       O995   2.337       .  S
Zr145       O724   2.337       .  S
Zr146      O1258   2.441       .  S
Zr146       O700   2.436       .  S
Zr146      O1253   2.340       .  S
Zr146      O1842   2.338       .  S
Zr146       O724   2.339       .  S
Zr147      O1259   2.441       .  S
Zr147       O701   2.432       .  S
Zr147      O1246   2.339       .  S
Zr147       O713   2.340       .  S
Zr147      O1854   2.339       .  S
Zr148       O417   2.437       .  S
Zr148      O1270   2.441       .  S
Zr148       O160   2.341       .  S
Zr148       O431   2.339       .  S
Zr148      O1278   2.340       .  S
Zr148      O1572   2.341       .  S
O149       Zr991   2.337   1_545  S
O149       Zr711   2.340   1_545  S
O149       Zr430   2.339   1_554  S
O150       Zr708   2.337   1_545  S
O150      Zr1838   2.338   1_445  S
O150      Zr1276   2.340   1_455  S
H159        O160   0.965       .  S
O160       Zr709   2.337   1_545  S
O160       Zr710   2.339   1_545  S
H161        O162   0.966       .  S
O162       Zr990   2.338   1_545  S
O162      Zr1839   2.339   1_445  S
O162      Zr1558   2.341   1_454  S
C163        C164   1.401       .  A
C163        C168   1.393       .  A
C163        H170   1.084       .  S
C164       C1293   1.406       .  A
C165        C166   1.402       .  A
C165       C1292   1.406   1_455  A
C165        F172   1.358       .  S
C166       C1295   1.404   1_455  A
C166        H171   1.083       .  S
C167        C168   1.404       .  A
C167       C1294   1.404       .  A
C168        F169   1.358       .  S
C173        C174   1.402       .  A
C173        C178   1.398       .  A
C173        H180   1.083       .  S
C174       C1303   1.404       .  A
C175        C176   1.397       .  A
C175       C1302   1.404   1_455  A
C175        F182   1.357       .  S
C176       C1305   1.402   1_455  A
C176        H181   1.083       .  S
C177        C178   1.404       .  A
C177       C1304   1.402       .  A
C178        F179   1.357       .  S
C183        C188   1.393       .  A
C183       C1312   1.402   1_455  A
C183        H190   1.084       .  S
C184        C185   1.406       .  A
C184       C1311   1.402       .  A
C185        C186   1.402       .  A
C185        F192   1.358       .  S
C186        C187   1.404       .  A
C186        H191   1.083       .  S
C187       C1316   1.404       .  A
C188       C1315   1.404   1_455  A
C188        F189   1.358       .  S
C193        C198   1.399       .  A
C193       C1322   1.403   1_455  A
C193        H200   1.083       .  S
C194        C195   1.403       .  A
C194       C1321   1.403       .  A
C195        C196   1.396       .  A
C195        F202   1.357       .  S
C196        C197   1.401       .  A
C196        H201   1.083       .  S
C197       C1326   1.404       .  A
C198       C1325   1.404   1_455  A
C198        F199   1.357       .  S
C203        C204   1.401       .  A
C203        C208   1.393       .  A
C203        H210   1.084       .  S
C204        C769   1.406       .  A
C205        C206   1.403       .  A
C205        C768   1.406   1_545  A
C205        F212   1.357       .  S
C206        C771   1.405   1_545  A
C206        H211   1.083       .  S
C207        C208   1.405       .  A
C207        C770   1.405       .  A
C208        F209   1.358       .  S
C213        C214   1.406       .  A
C213        C218   1.406       .  A
C213        H784   1.083       .  S
C214        C215   1.405       .  A
C215        C216   1.392       .  A
C215        F222   1.358       .  S
C216        C217   1.404       .  A
C216        H221   1.084       .  S
C217        C218   1.408       .  A
C218        F783   1.357       .  S
F219        C782   1.357       .  S
H220        C777   1.083       .  S
C223        C224   1.406       .  A
C223        C228   1.406       .  A
C223        H230   1.083       .  S
C224        C225   1.407       .  A
C225        C226   1.392       .  A
C225        F796   1.358       .  S
C226        C227   1.402       .  A
C226        H795   1.084       .  S
C227        C228   1.408       .  A
C228        F229   1.357       .  S
H231        C790   1.084       .  S
F232        C789   1.358       .  S
C233        C238   1.392       .  A
C233        C798   1.403   1_545  A
C233        H240   1.084       .  S
C234        C235   1.406       .  A
C234        C797   1.403       .  A
C235        C236   1.403       .  A
C235        F242   1.357       .  S
C236        C237   1.405       .  A
C236        H241   1.083       .  S
C237        C802   1.403       .  A
C238        C801   1.403   1_545  A
C238        F239   1.358       .  S
C243        C248   1.400       .  A
C243        C526   1.403       .  A
C243        H250   1.083       .  S
C244        C245   1.404       .  A
C244        C525   1.403   1_554  A
C244        C305   1.474   1_554  S
C245        C246   1.399       .  A
C245        F252   1.357       .  S
C246        C247   1.403       .  A
C246        H251   1.083       .  S
C247        C530   1.404   1_554  A
C248        C529   1.404       .  A
C248        F249   1.357       .  S
C253        C258   1.396       .  A
C253        C536   1.401   1_554  A
C253        H260   1.083       .  S
C254        C255   1.405       .  A
C254        C535   1.401       .  A
C255        C256   1.400       .  A
C255        F262   1.357       .  S
C256        C257   1.403       .  A
C256        H261   1.083       .  S
C257        C540   1.404       .  A
C258        C539   1.404   1_554  A
C258        F259   1.358       .  S
C263        C264   1.402   1_554  A
C263        C268   1.398       .  A
C263        H270   1.083       .  S
C264        C547   1.404       .  A
C265        C266   1.398       .  A
C265        C546   1.404       .  A
C265        F272   1.357       .  S
C266        C549   1.402       .  A
C266        H271   1.083       .  S
C267        C268   1.404   1_556  A
C267        C548   1.402       .  A
C268        F269   1.358       .  S
C273        C278   1.407       .  A
C273        C556   1.407   1_556  A
C273        H280   1.083       .  S
C274        C275   1.407       .  A
C274        C555   1.407       .  A
C275        C276   1.391       .  A
C275        F282   1.358       .  S
C276        C277   1.404       .  A
C276        H281   1.084       .  S
C277        C560   1.410       .  A
C278        C559   1.410   1_556  A
C278        F279   1.357       .  S
C283        C288   1.416       .  A
C283        C402   1.486       .  S
C284        C285   1.395       .  A
C284        H289   1.083       .  S
C285        C286   1.394       .  A
C285        C549   1.470       .  S
C286        H290   1.085       .  S
C287        C288   1.408       .  A
C287        C559   1.488       .  S
C288        H291   1.083       .  S
C292        C293   1.412       .  A
C292        C297   1.415       .  A
C292        C434   1.486       .  S
C293        C294   1.396       .  A
C293        H298   1.083       .  S
C294        C295   1.394       .  A
C294        C539   1.470       .  S
C295        C296   1.401       .  A
C295        H299   1.085       .  S
C296        C297   1.407       .  A
C296        C556   1.486   1_556  S
C297        H300   1.083   1_556  S
C301        C302   1.411       .  A
C301        C306   1.412       .  A
C301        C433   1.484       .  S
C302        C303   1.397       .  A
C302        H307   1.084       .  S
C303        C304   1.398       .  A
C303        C536   1.470       .  S
C304        C305   1.399       .  A
C304        H308   1.085       .  S
C305        C306   1.402       .  A
C306        H309   1.083   1_556  S
C310        C311   1.410       .  A
C310        C315   1.412       .  A
C311        C312   1.397       .  A
C311        H316   1.084       .  S
C312        C313   1.398       .  A
C312        C546   1.470       .  S
C313        C314   1.398       .  A
C313        H317   1.085       .  S
C314        C315   1.402       .  A
C314        C529   1.474       .  S
C315        H318   1.083       .  S
C319        C320   1.413       .  A
C319        C324   1.415       .  A
C319        C438   1.485       .  S
C320        C321   1.398       .  A
C320        H325   1.083       .  S
C321        C322   1.397       .  A
C321        C516   1.477       .  S
C322        C323   1.399       .  A
C322        H326   1.085       .  S
C323        C324   1.403       .  A
C323        C506   1.483       .  S
C324        H327   1.083       .  S
C328        C329   1.413       .  A
C328        C333   1.414       .  A
C328        C435   1.485       .  S
C329        C330   1.398       .  A
C329        H334   1.083       .  S
C330        C331   1.397       .  A
C330        C519   1.475       .  S
C331        C332   1.400       .  A
C331        H335   1.085       .  S
C332        C333   1.403       .  A
C332        C496   1.480       .  S
C333        H336   1.083       .  S
C337        C338   1.415       .  A
C337        C342   1.413       .  A
C337        C436   1.486       .  S
C338        C339   1.404       .  A
C338        H343   1.083       .  S
C339        C340   1.400       .  A
C339        C499   1.483       .  S
C340        C341   1.397       .  A
C340        H344   1.085       .  S
C341        C342   1.399       .  A
C341        C489   1.477       .  S
C342        H345   1.083       .  S
C346        C347   1.414       .  A
C346        C351   1.412       .  A
C346        C437   1.484       .  S
C347        C348   1.403       .  A
C347        H352   1.083       .  S
C348        C349   1.400       .  A
C348        C509   1.481       .  S
C349        C350   1.397       .  A
C349        H353   1.085       .  S
C350        C351   1.398       .  A
C350        C486   1.475       .  S
C351        H354   1.083       .  S
C355        C356   1.411       .  A
C355        C360   1.412       .  A
C355        C439   1.481       .  S
C356        C357   1.398       .  A
C356        H361   1.083       .  S
C357        C358   1.396       .  A
C357        C476   1.469       .  S
C358        C359   1.399       .  A
C358        H362   1.085       .  S
C359        C360   1.401       .  A
C359        C466   1.474       .  S
C360        H363   1.083       .  S
C364        C365   1.410       .  A
C364        C369   1.411       .  A
C364        C404   1.481       .  S
C365        C366   1.399       .  A
C365        H370   1.084       .  S
C366        C367   1.397       .  A
C366        C479   1.469       .  S
C367        C368   1.397       .  A
C367        H371   1.085       .  S
C368        C369   1.399       .  A
C368        C456   1.470       .  S
C369        H372   1.084       .  S
C373        C374   1.412       .  A
C373        C378   1.411       .  A
C373        C440   1.482       .  S
C374        C375   1.400       .  A
C374        H379   1.083       .  S
C375        C376   1.398       .  A
C375        C469   1.474       .  S
C376        C377   1.397       .  A
C376        H380   1.085       .  S
C377        C378   1.399       .  A
C377        C446   1.472       .  S
C378        H381   1.083       .  S
C382        C383   1.411       .  A
C382        C387   1.412       .  A
C382        C405   1.481       .  S
C383        C384   1.398       .  A
C383        H388   1.083       .  S
C384        C385   1.396       .  A
C384        C459   1.469       .  S
C385        C386   1.398       .  A
C385        H389   1.085       .  S
C386        C387   1.400       .  A
C386        C449   1.474       .  S
C387        H390   1.083       .  S
O391       Zr427   2.433       .  S
O391        C402   1.292       .  A
O392       Zr426   2.436       .  S
O392        C403   1.293       .  A
O393       Zr399   2.436   1_556  S
O393        C404   1.293       .  A
O394        C405   1.292       .  A
O395       Zr429   2.435       .  S
O395        C405   1.292       .  A
O396       Zr428   2.431       .  S
O396        C404   1.292       .  A
O397      Zr1527   2.437   1_455  S
O397        C403   1.292       .  A
O398       Zr399   2.445       .  S
O398        C402   1.293       .  A
Zr399      O1525   2.437       .  S
Zr399      O1246   2.341       .  S
Zr399       O401   2.338   1_554  S
Zr399      O1535   2.342   1_554  S
O400      Zr1245   2.341   1_455  S
O400      Zr1557   2.339   1_455  S
O401       Zr427   2.336   1_556  S
O401       Zr428   2.339       .  S
H406        O407   0.966       .  S
O407      Zr1527   2.342   1_456  S
O407       Zr426   2.338   1_556  S
O407      Zr1556   2.340   1_455  S
H408        O409   0.966       .  S
O409       Zr429   2.340       .  S
O410       Zr990   2.433   1_546  S
O410        C433   1.292       .  A
O411       Zr991   2.435   1_546  S
O411        C434   1.293       .  A
O412      Zr1556   2.441   1_455  S
O412        C435   1.293       .  A
O413      Zr1557   2.441   1_455  S
O413        C436   1.293       .  A
O414       Zr429   2.440       .  S
O414        C437   1.293       .  A
O415       Zr428   2.439       .  S
O415        C438   1.293       .  A
O416       Zr430   2.433       .  S
O416        C439   1.292       .  A
O417        C440   1.293       .  A
O418       Zr992   2.436   1_545  S
O418        C439   1.292       .  A
O419       Zr993   2.432   1_545  S
O419        C440   1.292       .  A
O420       Zr426   2.435   1_556  S
O420        C435   1.293       .  A
O421       Zr427   2.435   1_556  S
O421        C438   1.293       .  A
O422        C437   1.293       .  A
O423        C436   1.293       .  A
O424      Zr1558   2.441   1_455  S
O424        C433   1.293       .  A
O425       Zr430   2.444       .  S
O425        C434   1.293       .  A
Zr426       O974   2.433   1_554  S
Zr426       O996   2.337   1_554  S
Zr426       O726   2.338       .  S
Zr427       O975   2.435   1_554  S
Zr427       O713   2.337       .  S
Zr427      O1006   2.337   1_554  S
Zr428      O1540   2.441       .  S
Zr428       O982   2.436       .  S
Zr428      O1535   2.340       .  S
Zr428      O2124   2.338       .  S
Zr428      O1006   2.339       .  S
Zr429      O1541   2.441       .  S
Zr429       O983   2.432       .  S
Zr429      O1528   2.339       .  S
Zr429       O995   2.340       .  S
Zr429      O2136   2.339       .  S
Zr430      O1552   2.441       .  S
Zr430      O1560   2.340       .  S
Zr430      O1290   2.341   1_556  S
Zr430       O442   2.341       .  S
O431       Zr709   2.337   1_545  S
O431       Zr993   2.340   1_545  S
O432       Zr990   2.337   1_546  S
O432      Zr2120   2.338   1_445  S
O432      Zr1558   2.340   1_455  S
H441        O442   0.965       .  S
O442       Zr991   2.337   1_546  S
O442       Zr992   2.339   1_545  S
H443        O444   0.966       .  S
O444       Zr708   2.338   1_545  S
O444      Zr2121   2.339   1_445  S
O444      Zr1276   2.341   1_455  S
C445        C446   1.401       .  A
C445        C450   1.393       .  A
C445        H452   1.084       .  S
C446       C1575   1.406       .  A
C447       C1574   1.406   1_455  A
C447        C448   1.402       .  A
C447        F454   1.358       .  S
C448       C1577   1.404   1_455  A
C448        H453   1.083       .  S
C449       C1576   1.404       .  A
C449        C450   1.404       .  A
C450        F451   1.358       .  S
C455        C456   1.402       .  A
C455        C460   1.398       .  A
C455        H462   1.083       .  S
C456       C1585   1.404       .  A
C457       C1584   1.404   1_455  A
C457        C458   1.397       .  A
C457        F464   1.357       .  S
C458       C1587   1.402   1_455  A
C458        H463   1.083       .  S
C459       C1586   1.402       .  A
C459        C460   1.404       .  A
C460        F461   1.357       .  S
C465       C1594   1.402   1_455  A
C465        C470   1.393       .  A
C465        H472   1.084       .  S
C466       C1593   1.402       .  A
C466        C467   1.406       .  A
C467        C468   1.402       .  A
C467        F474   1.358       .  S
C468        C469   1.404       .  A
C468        H473   1.083       .  S
C469       C1598   1.404       .  A
C470       C1597   1.404   1_455  A
C470        F471   1.358       .  S
C475       C1604   1.403   1_455  A
C475        C480   1.399       .  A
C475        H482   1.083       .  S
C476       C1603   1.403       .  A
C476        C477   1.403       .  A
C477        C478   1.396       .  A
C477        F484   1.357       .  S
C478        C479   1.401       .  A
C478        H483   1.083       .  S
C479       C1608   1.404       .  A
C480       C1607   1.404   1_455  A
C480        F481   1.357       .  S
C485        C486   1.401       .  A
C485        C490   1.393       .  A
C485        H492   1.084       .  S
C486       C1051   1.406       .  A
C487       C1050   1.406   1_545  A
C487        C488   1.403       .  A
C487        F494   1.357       .  S
C488       C1053   1.405   1_545  A
C488        H493   1.083       .  S
C489       C1052   1.405       .  A
C489        C490   1.405       .  A
C490        F491   1.358       .  S
C495        C496   1.406       .  A
C495        C500   1.406       .  A
C495       H1066   1.083       .  S
C496        C497   1.405       .  A
C497        C498   1.392       .  A
C497        F504   1.358       .  S
C498        C499   1.404       .  A
C498        H503   1.084       .  S
C499        C500   1.408       .  A
C500       F1065   1.357       .  S
F501       C1064   1.357       .  S
H502       C1059   1.083       .  S
C505        C506   1.406       .  A
C505        C510   1.406       .  A
C505        H512   1.083       .  S
C506        C507   1.407       .  A
C507        C508   1.392       .  A
C507       F1078   1.358       .  S
C508        C509   1.402       .  A
C508       H1077   1.084       .  S
C509        C510   1.408       .  A
C510        F511   1.357       .  S
H513       C1072   1.084       .  S
F514       C1071   1.358       .  S
C515       C1080   1.403   1_545  A
C515        C520   1.392       .  A
C515        H522   1.084       .  S
C516       C1079   1.403       .  A
C516        C517   1.406       .  A
C517        C518   1.403       .  A
C517        F524   1.357       .  S
C518        C519   1.405       .  A
C518        H523   1.083       .  S
C519       C1084   1.403       .  A
C520       C1083   1.403   1_545  A
C520        F521   1.358       .  S
C525        C530   1.400       .  A
C525        H532   1.083       .  S
C526        C527   1.404       .  A
C527        C528   1.399       .  A
C527        F534   1.357       .  S
C528        C529   1.403       .  A
C528        H533   1.083       .  S
C530        F531   1.357       .  S
C535        C540   1.396       .  A
C535        H542   1.083       .  S
C536        C537   1.405       .  A
C537        C538   1.400       .  A
C537        F544   1.357       .  S
C538        C539   1.403       .  A
C538        H543   1.083       .  S
C540        F541   1.358       .  S
C545        C546   1.402       .  A
C545        C550   1.398       .  A
C545        H552   1.083       .  S
C547        C548   1.398       .  A
C547        F554   1.357       .  S
C548        H553   1.083       .  S
C549        C550   1.404       .  A
C550        F551   1.358       .  S
C555        C560   1.407       .  A
C555        H562   1.083       .  S
C556        C557   1.407       .  A
C557        C558   1.391       .  A
C557        F564   1.358       .  S
C558        C559   1.404       .  A
C558        H563   1.084       .  S
C560        F561   1.357       .  S
C565        C848   1.412       .  A
C565        C570   1.416       .  A
C565        C684   1.486       .  S
C566        C847   1.412   1_556  A
C566        C567   1.395       .  A
C566        H571   1.083       .  S
C567        C568   1.394   1_556  A
C567        C831   1.470       .  S
C568        C851   1.403       .  A
C568        H572   1.085       .  S
C569        C850   1.403       .  A
C569        C570   1.408       .  A
C569        C841   1.489       .  S
C570        H573   1.083       .  S
C574        C575   1.412       .  A
C574        C579   1.415       .  A
C574        C716   1.486       .  S
C575        C576   1.396       .  A
C575        H580   1.083       .  S
C576        C577   1.394       .  A
C576        C821   1.470       .  S
C577        C578   1.401       .  A
C577        H581   1.085       .  S
C578        C579   1.407       .  A
C578        C838   1.486       .  S
C579        H582   1.083       .  S
C583        C584   1.411       .  A
C583        C588   1.412       .  A
C583        C715   1.484       .  S
C584        C585   1.397       .  A
C584        H589   1.084       .  S
C585        C586   1.398       .  A
C585        C818   1.470       .  S
C586        C587   1.399       .  A
C586        H590   1.085       .  S
C587        C588   1.402       .  A
C587       C1090   1.474       .  S
C588        H591   1.083       .  S
C592        C593   1.410       .  A
C592        C597   1.412       .  A
C592        C967   1.483       .  S
C593        C594   1.398   1_554  A
C593        H598   1.084   1_554  S
C594        C595   1.398   1_556  A
C594        C828   1.470       .  S
C595        C596   1.398       .  A
C595        H599   1.085       .  S
C596        C597   1.402       .  A
C596        C811   1.474       .  S
C597        H600   1.083       .  S
C601        C602   1.413       .  A
C601        C606   1.415       .  A
C601        C720   1.485       .  S
C602        C603   1.398       .  A
C602        H607   1.083       .  S
C603        C604   1.397       .  A
C603        C798   1.477       .  S
C604        C605   1.399       .  A
C604        H608   1.085       .  S
C605        C606   1.403       .  A
C605        C788   1.483       .  S
C606        H609   1.083       .  S
C610        C611   1.413       .  A
C610        C615   1.414       .  A
C610        C717   1.485       .  S
C611        C612   1.398       .  A
C611        H616   1.083       .  S
C612        C613   1.397       .  A
C612        C801   1.475       .  S
C613        C614   1.400       .  A
C613        H617   1.085       .  S
C614        C615   1.403       .  A
C614        C778   1.480       .  S
C615        H618   1.083       .  S
C619        C620   1.415       .  A
C619        C624   1.413       .  A
C619        C718   1.486       .  S
C620        C621   1.404       .  A
C620        H625   1.083       .  S
C621        C622   1.400       .  A
C621        C781   1.483       .  S
C622        C623   1.397       .  A
C622        H626   1.085       .  S
C623        C624   1.399       .  A
C623        C771   1.477       .  S
C624        H627   1.083       .  S
C628        C629   1.414       .  A
C628        C633   1.412       .  A
C628        C719   1.484       .  S
C629        C630   1.403       .  A
C629        H634   1.083       .  S
C630        C631   1.400       .  A
C630        C791   1.481       .  S
C631        C632   1.397       .  A
C631        H635   1.085       .  S
C632        C633   1.398       .  A
C632        C768   1.475       .  S
C633        H636   1.083       .  S
C637        C638   1.411       .  A
C637        C642   1.412       .  A
C637        C721   1.481       .  S
C638        C639   1.398       .  A
C638        H643   1.083       .  S
C639        C640   1.396       .  A
C639        C758   1.470       .  S
C640        C641   1.399       .  A
C640        H644   1.085       .  S
C641        C642   1.401       .  A
C641        C748   1.474       .  S
C642        H645   1.083       .  S
C646        C647   1.410       .  A
C646        C651   1.411       .  A
C646        C686   1.481       .  S
C647        C648   1.399       .  A
C647        H652   1.084       .  S
C648        C649   1.397       .  A
C648        C761   1.469       .  S
C649        C650   1.397       .  A
C649        H653   1.085       .  S
C650        C651   1.399       .  A
C650        C738   1.470       .  S
C651        H654   1.084       .  S
C655        C656   1.412       .  A
C655        C660   1.411       .  A
C655        C722   1.482       .  S
C656        C657   1.400       .  A
C656        H661   1.083       .  S
C657        C658   1.398       .  A
C657        C751   1.474       .  S
C658        C659   1.397       .  A
C658        H662   1.085       .  S
C659        C660   1.399       .  A
C659        C728   1.472       .  S
C660        H663   1.083       .  S
C664        C665   1.411       .  A
C664        C669   1.412       .  A
C664        C687   1.481       .  S
C665        C666   1.398       .  A
C665        H670   1.083       .  S
C666        C667   1.396       .  A
C666        C741   1.469       .  S
C667        C668   1.398       .  A
C667        H671   1.085       .  S
C668        C669   1.400       .  A
C668        C731   1.474       .  S
C669        H672   1.083       .  S
O673       Zr709   2.433       .  S
O673        C684   1.292       .  A
O674       Zr708   2.436       .  S
O674        C685   1.293       .  A
O675       Zr681   2.436       .  S
O675        C686   1.293       .  A
O676       Zr963   2.433       .  S
O676        C687   1.292       .  A
O677       Zr711   2.435       .  S
O677        C687   1.292       .  A
O678       Zr710   2.431       .  S
O678        C686   1.292       .  A
O679      Zr1809   2.437   1_455  S
O679        C685   1.292       .  A
O680       Zr681   2.445       .  S
O680        C684   1.293       .  A
Zr681       O958   2.433       .  S
Zr681      O1807   2.437       .  S
Zr681      O2092   2.341       .  S
Zr681       O683   2.338       .  S
Zr681       O973   2.340       .  S
Zr681      O1817   2.342       .  S
O682      Zr2091   2.341   1_455  S
O682       Zr990   2.337       .  S
O682      Zr1839   2.339   1_455  S
O683       Zr709   2.336       .  S
O683       Zr710   2.339       .  S
C685        C874   1.483       .  S
H688        O689   0.966       .  S
O689      Zr1809   2.342   1_455  S
O689       Zr708   2.338       .  S
O689      Zr1838   2.340   1_455  S
H690        O691   0.966       .  S
O691       Zr963   2.340       .  S
O691       Zr991   2.337       .  S
O691       Zr711   2.340       .  S
O692        C715   1.292       .  A
O693        C716   1.293       .  A
O694      Zr1838   2.441   1_455  S
O694        C717   1.293       .  A
O695      Zr1839   2.441   1_455  S
O695        C718   1.293       .  A
O696       Zr711   2.440       .  S
O696        C719   1.293       .  A
O697       Zr710   2.440       .  S
O697        C720   1.293       .  A
O698       Zr712   2.433       .  S
O698        C721   1.292       .  A
O699       Zr994   2.437   1_554  S
O699        C722   1.293       .  A
O700        C721   1.292       .  A
O701        C722   1.292       .  A
O702       Zr708   2.435       .  S
O702        C717   1.293       .  A
O703       Zr709   2.435       .  S
O703        C720   1.293       .  A
O704       Zr991   2.436       .  S
O704        C719   1.293       .  A
O705       Zr990   2.437       .  S
O705        C718   1.293       .  A
O706      Zr1840   2.441   1_455  S
O706        C715   1.293       .  A
O707       Zr712   2.444       .  S
O707        C716   1.293       .  A
Zr708       O987   2.438       .  S
Zr708       O964   2.337       .  S
Zr709       O986   2.436       .  S
Zr709       O973   2.337       .  S
Zr710      O1822   2.441       .  S
Zr710      O1817   2.340       .  S
Zr710      O1278   2.338   1_565  S
Zr711      O1823   2.441       .  S
Zr711      O1810   2.339       .  S
Zr711      O1290   2.339   1_565  S
Zr712       O981   2.437       .  S
Zr712      O1834   2.441       .  S
Zr712       O995   2.339       .  S
Zr712      O1842   2.340       .  S
Zr712      O2136   2.341       .  S
Zr712       O724   2.341       .  S
O713       Zr994   2.339   1_554  S
O714      Zr1274   2.338   1_455  S
O714      Zr1840   2.340   1_455  S
H723        O724   0.965       .  S
H725        O726   0.966       .  S
O726      Zr1275   2.339   1_455  S
O726      Zr2122   2.341   1_454  S
C727        C728   1.401       .  A
C727        C732   1.393       .  A
C727        H734   1.084       .  S
C728       C1857   1.406       .  A
C729       C1856   1.406   1_455  A
C729        C730   1.402       .  A
C729        F736   1.358       .  S
C730       C1859   1.404   1_455  A
C730        H735   1.083       .  S
C731       C1858   1.404       .  A
C731        C732   1.404       .  A
C732        F733   1.358       .  S
C737        C738   1.402       .  A
C737        C742   1.398       .  A
C737        H744   1.083       .  S
C738       C1867   1.404       .  A
C739       C1866   1.404   1_455  A
C739        C740   1.397       .  A
C739        F746   1.357       .  S
C740       C1869   1.402   1_455  A
C740        H745   1.083       .  S
C741       C1868   1.402       .  A
C741        C742   1.404       .  A
C742        F743   1.357       .  S
C747       C1876   1.402   1_455  A
C747        C752   1.393       .  A
C747        H754   1.084       .  S
C748       C1875   1.402       .  A
C748        C749   1.406       .  A
C749        C750   1.402       .  A
C749        F756   1.358       .  S
C750        C751   1.404       .  A
C750        H755   1.083       .  S
C751       C1880   1.404       .  A
C752       C1879   1.404   1_455  A
C752        F753   1.358       .  S
C757       C1886   1.403   1_455  A
C757        C762   1.399       .  A
C757        H764   1.083       .  S
C758       C1885   1.403       .  A
C758        C759   1.403       .  A
C759        C760   1.396       .  A
C759        F766   1.357       .  S
C760        C761   1.401       .  A
C760        H765   1.083       .  S
C761       C1890   1.404       .  A
C762       C1889   1.404   1_455  A
C762        F763   1.357       .  S
C767        C768   1.401       .  A
C767        C772   1.393       .  A
C767        H774   1.084       .  S
C769        C770   1.403       .  A
C769        F776   1.357       .  S
C770        H775   1.083       .  S
C771        C772   1.405       .  A
C772        F773   1.358       .  S
C777        C778   1.406   1_545  A
C777        C782   1.406       .  A
C778        C779   1.405       .  A
C779        C780   1.392       .  A
C779        F786   1.358       .  S
C780        C781   1.404       .  A
C780        H785   1.084       .  S
C781        C782   1.408   1_565  A
C787        C788   1.406       .  A
C787        C792   1.406       .  A
C787        H794   1.083       .  S
C788        C789   1.407   1_565  A
C789        C790   1.392       .  A
C790        C791   1.402   1_545  A
C791        C792   1.408       .  A
C792        F793   1.357       .  S
C797        C802   1.392       .  A
C797        H804   1.084       .  S
C798        C799   1.406       .  A
C799        C800   1.403       .  A
C799        F806   1.357       .  S
C800        C801   1.405       .  A
C800        H805   1.083       .  S
C802        F803   1.358       .  S
C807       C1090   1.403       .  A
C807        C812   1.400       .  A
C807        H814   1.083       .  S
C808       C1089   1.403   1_554  A
C808        C809   1.404       .  A
C808        C869   1.474   1_554  S
C809        C810   1.399       .  A
C809        F816   1.357       .  S
C810        C811   1.403       .  A
C810        H815   1.083       .  S
C811       C1094   1.404   1_554  A
C812       C1093   1.404       .  A
C812        F813   1.357       .  S
C817       C1100   1.401   1_554  A
C817        C822   1.396       .  A
C817        H824   1.083       .  S
C818       C1099   1.401       .  A
C818        C819   1.405       .  A
C819        C820   1.400       .  A
C819        F826   1.357       .  S
C820        C821   1.403       .  A
C820        H825   1.083       .  S
C821       C1104   1.404       .  A
C822       C1103   1.404   1_554  A
C822        F823   1.358       .  S
C827        C828   1.402   1_554  A
C827        C832   1.398       .  A
C827        H834   1.083       .  S
C828       C1111   1.404       .  A
C829       C1110   1.404       .  A
C829        C830   1.398       .  A
C829        F836   1.357       .  S
C830       C1113   1.402       .  A
C830        H835   1.083       .  S
C831       C1112   1.402       .  A
C831        C832   1.404   1_556  A
C832        F833   1.358       .  S
C837       C1120   1.407   1_556  A
C837        C842   1.407       .  A
C837        H844   1.083       .  S
C838       C1119   1.407       .  A
C838        C839   1.407       .  A
C839        C840   1.391       .  A
C839        F846   1.358       .  S
C840        C841   1.404       .  A
C840        H845   1.084       .  S
C841       C1124   1.410       .  A
C842       C1123   1.410   1_556  A
C842        F843   1.357       .  S
C847        C852   1.416       .  A
C847        C966   1.486       .  S
C848        C849   1.395       .  A
C848        H853   1.083       .  S
C849        C850   1.394       .  A
C849       C1113   1.470       .  S
C850        H854   1.085       .  S
C851        C852   1.408       .  A
C851       C1123   1.488       .  S
C852        H855   1.083       .  S
C856        C857   1.412       .  A
C856        C861   1.415       .  A
C856        C998   1.486       .  S
C857        C858   1.396       .  A
C857        H862   1.083       .  S
C858        C859   1.394       .  A
C858       C1103   1.470       .  S
C859        C860   1.401       .  A
C859        H863   1.085       .  S
C860        C861   1.407       .  A
C860       C1120   1.486   1_556  S
C861        H864   1.083   1_556  S
C865        C866   1.411       .  A
C865        C870   1.412       .  A
C865        C997   1.484       .  S
C866        C867   1.397       .  A
C866        H871   1.084       .  S
C867        C868   1.398       .  A
C867       C1100   1.470       .  S
C868        C869   1.399       .  A
C868        H872   1.085       .  S
C869        C870   1.402       .  A
C870        H873   1.083   1_556  S
C874        C875   1.410       .  A
C874        C879   1.412       .  A
C875        C876   1.397       .  A
C875        H880   1.084       .  S
C876        C877   1.398       .  A
C876       C1110   1.470       .  S
C877        C878   1.398       .  A
C877        H881   1.085       .  S
C878        C879   1.402       .  A
C878       C1093   1.474       .  S
C879        H882   1.083       .  S
C883        C884   1.413       .  A
C883        C888   1.415       .  A
C883       C1002   1.485       .  S
C884        C885   1.398       .  A
C884        H889   1.083       .  S
C885        C886   1.397       .  A
C885       C1080   1.477       .  S
C886        C887   1.399       .  A
C886        H890   1.085       .  S
C887        C888   1.403       .  A
C887       C1070   1.483       .  S
C888        H891   1.083       .  S
C892        C893   1.413       .  A
C892        C897   1.414       .  A
C892        C999   1.485       .  S
C893        C894   1.398       .  A
C893        H898   1.083       .  S
C894        C895   1.397       .  A
C894       C1083   1.475       .  S
C895        C896   1.400       .  A
C895        H899   1.085       .  S
C896        C897   1.403       .  A
C896       C1060   1.480       .  S
C897        H900   1.083       .  S
C901        C902   1.415       .  A
C901        C906   1.413       .  A
C901       C1000   1.486       .  S
C902        C903   1.404       .  A
C902        H907   1.083       .  S
C903        C904   1.400       .  A
C903       C1063   1.483       .  S
C904        C905   1.397       .  A
C904        H908   1.085       .  S
C905        C906   1.399       .  A
C905       C1053   1.477       .  S
C906        H909   1.083       .  S
C910        C911   1.414       .  A
C910        C915   1.412       .  A
C910       C1001   1.484       .  S
C911        C912   1.403       .  A
C911        H916   1.083       .  S
C912        C913   1.400       .  A
C912       C1073   1.481       .  S
C913        C914   1.397       .  A
C913        H917   1.085       .  S
C914        C915   1.398       .  A
C914       C1050   1.475       .  S
C915        H918   1.083       .  S
C919        C920   1.411       .  A
C919        C924   1.412       .  A
C919       C1003   1.481       .  S
C920        C921   1.398       .  A
C920        H925   1.083       .  S
C921        C922   1.396       .  A
C921       C1040   1.470       .  S
C922        C923   1.399       .  A
C922        H926   1.085       .  S
C923        C924   1.401       .  A
C923       C1030   1.474       .  S
C924        H927   1.083       .  S
C928        C929   1.410       .  A
C928        C933   1.411       .  A
C928        C968   1.481       .  S
C929        C930   1.399       .  A
C929        H934   1.084       .  S
C930        C931   1.397       .  A
C930       C1043   1.469       .  S
C931        C932   1.397       .  A
C931        H935   1.085       .  S
C932        C933   1.399       .  A
C932       C1020   1.470       .  S
C933        H936   1.084       .  S
C937        C938   1.412       .  A
C937        C942   1.411       .  A
C937       C1004   1.482       .  S
C938        C939   1.400       .  A
C938        H943   1.083       .  S
C939        C940   1.398       .  A
C939       C1033   1.474       .  S
C940        C941   1.397       .  A
C940        H944   1.085       .  S
C941        C942   1.399       .  A
C941       C1010   1.472       .  S
C942        H945   1.083       .  S
C946        C947   1.411       .  A
C946        C951   1.412       .  A
C946        C969   1.481       .  S
C947        C948   1.398       .  A
C947        H952   1.083       .  S
C948        C949   1.396       .  A
C948       C1023   1.469       .  S
C949        C950   1.398       .  A
C949        H953   1.085       .  S
C950        C951   1.400       .  A
C950       C1013   1.474       .  S
C951        H954   1.083       .  S
O955       Zr991   2.433       .  S
O955        C966   1.292       .  A
O956       Zr990   2.436       .  S
O956        C967   1.293       .  A
O957       Zr963   2.436   1_556  S
O957        C968   1.293       .  A
O958        C969   1.292       .  A
O959       Zr993   2.435       .  S
O959        C969   1.292       .  A
O960       Zr992   2.431       .  S
O960        C968   1.292       .  A
O961      Zr2091   2.437   1_455  S
O961        C967   1.292       .  A
O962       Zr963   2.445       .  S
O962        C966   1.293       .  A
Zr963      O2089   2.437       .  S
Zr963      O1810   2.341       .  S
Zr963       O965   2.338   1_554  S
Zr963      O2099   2.342   1_554  S
O964      Zr1809   2.341   1_455  S
O964      Zr2121   2.339   1_455  S
O965       Zr991   2.336   1_556  S
O965       Zr992   2.339       .  S
H970        O971   0.966       .  S
O971      Zr2091   2.342   1_456  S
O971       Zr990   2.338   1_556  S
O971      Zr2120   2.340   1_455  S
H972        O973   0.966       .  S
O973       Zr993   2.340       .  S
O974        C997   1.292       .  A
O975        C998   1.293       .  A
O976      Zr2120   2.441   1_455  S
O976        C999   1.293       .  A
O977      Zr2121   2.441   1_455  S
O977       C1000   1.293       .  A
O978       Zr993   2.440       .  S
O978       C1001   1.293       .  A
O979       Zr992   2.439       .  S
O979       C1002   1.293       .  A
O980       Zr994   2.433       .  S
O980       C1003   1.292       .  A
O981       C1004   1.293       .  A
O982       C1003   1.292       .  A
O983       C1004   1.292       .  A
O984       Zr990   2.435   1_556  S
O984        C999   1.293       .  A
O985       Zr991   2.435   1_556  S
O985       C1002   1.293       .  A
O986       C1001   1.293       .  A
O987       C1000   1.293       .  A
O988      Zr2122   2.441   1_455  S
O988        C997   1.293       .  A
O989       Zr994   2.444       .  S
O989        C998   1.293       .  A
Zr992      O2104   2.441       .  S
Zr992      O2099   2.340       .  S
Zr992      O1560   2.338   1_565  S
Zr993      O2105   2.441       .  S
Zr993      O2092   2.339       .  S
Zr993      O1572   2.339   1_565  S
Zr994      O2116   2.441       .  S
Zr994      O2124   2.340       .  S
Zr994      O1854   2.341   1_556  S
Zr994      O1006   2.341       .  S
O996      Zr1556   2.338   1_455  S
O996      Zr2122   2.340   1_455  S
H1005      O1006   0.965       .  S
H1007      O1008   0.966       .  S
O1008     Zr1557   2.339   1_455  S
O1008     Zr1840   2.341   1_455  S
C1009      C1010   1.401       .  A
C1009      C1014   1.393       .  A
C1009      H1016   1.084       .  S
C1010      C2139   1.406       .  A
C1011      C2138   1.406   1_455  A
C1011      C1012   1.402       .  A
C1011      F1018   1.358       .  S
C1012      C2141   1.404   1_455  A
C1012      H1017   1.083       .  S
C1013      C2140   1.404       .  A
C1013      C1014   1.404       .  A
C1014      F1015   1.358       .  S
C1019      C1020   1.402       .  A
C1019      C1024   1.398       .  A
C1019      H1026   1.083       .  S
C1020      C2149   1.404       .  A
C1021      C2148   1.404   1_455  A
C1021      C1022   1.397       .  A
C1021      F1028   1.357       .  S
C1022      C2151   1.402   1_455  A
C1022      H1027   1.083       .  S
C1023      C2150   1.402       .  A
C1023      C1024   1.404       .  A
C1024      F1025   1.357       .  S
C1029      C2158   1.402   1_455  A
C1029      C1034   1.393       .  A
C1029      H1036   1.084       .  S
C1030      C2157   1.402       .  A
C1030      C1031   1.406       .  A
C1031      C1032   1.402       .  A
C1031      F1038   1.358       .  S
C1032      C1033   1.404       .  A
C1032      H1037   1.083       .  S
C1033      C2162   1.404       .  A
C1034      C2161   1.404   1_455  A
C1034      F1035   1.358       .  S
C1039      C2168   1.403   1_455  A
C1039      C1044   1.399       .  A
C1039      H1046   1.083       .  S
C1040      C2167   1.403       .  A
C1040      C1041   1.403       .  A
C1041      C1042   1.396       .  A
C1041      F1048   1.357       .  S
C1042      C1043   1.401       .  A
C1042      H1047   1.083       .  S
C1043      C2172   1.404       .  A
C1044      C2171   1.404   1_455  A
C1044      F1045   1.357       .  S
C1049      C1050   1.401       .  A
C1049      C1054   1.393       .  A
C1049      H1056   1.084       .  S
C1051      C1052   1.403       .  A
C1051      F1058   1.357       .  S
C1052      H1057   1.083       .  S
C1053      C1054   1.405       .  A
C1054      F1055   1.358       .  S
C1059      C1060   1.406   1_545  A
C1059      C1064   1.406       .  A
C1060      C1061   1.405       .  A
C1061      C1062   1.392       .  A
C1061      F1068   1.358       .  S
C1062      C1063   1.404       .  A
C1062      H1067   1.084       .  S
C1063      C1064   1.408   1_565  A
C1069      C1070   1.406       .  A
C1069      C1074   1.406       .  A
C1069      H1076   1.083       .  S
C1070      C1071   1.407   1_565  A
C1071      C1072   1.392       .  A
C1072      C1073   1.402   1_545  A
C1073      C1074   1.408       .  A
C1074      F1075   1.357       .  S
C1079      C1084   1.392       .  A
C1079      H1086   1.084       .  S
C1080      C1081   1.406       .  A
C1081      C1082   1.403       .  A
C1081      F1088   1.357       .  S
C1082      C1083   1.405       .  A
C1082      H1087   1.083       .  S
C1084      F1085   1.358       .  S
C1089      C1094   1.400       .  A
C1089      H1096   1.083       .  S
C1090      C1091   1.404       .  A
C1091      C1092   1.399       .  A
C1091      F1098   1.357       .  S
C1092      C1093   1.403       .  A
C1092      H1097   1.083       .  S
C1094      F1095   1.357       .  S
C1099      C1104   1.396       .  A
C1099      H1106   1.083       .  S
C1100      C1101   1.405       .  A
C1101      C1102   1.400       .  A
C1101      F1108   1.357       .  S
C1102      C1103   1.403       .  A
C1102      H1107   1.083       .  S
C1104      F1105   1.358       .  S
C1109      C1110   1.402       .  A
C1109      C1114   1.398       .  A
C1109      H1116   1.083       .  S
C1111      C1112   1.398       .  A
C1111      F1118   1.357       .  S
C1112      H1117   1.083       .  S
C1113      C1114   1.404       .  A
C1114      F1115   1.358       .  S
C1119      C1124   1.407       .  A
C1119      H1126   1.083       .  S
C1120      C1121   1.407       .  A
C1121      C1122   1.391       .  A
C1121      F1128   1.358       .  S
C1122      C1123   1.404       .  A
C1122      H1127   1.084       .  S
C1124      F1125   1.357       .  S
C1129      C1412   1.412       .  A
C1129      C1134   1.416       .  A
C1129      C1248   1.486       .  S
C1130      C1411   1.412   1_556  A
C1130      C1131   1.395       .  A
C1130      H1135   1.083       .  S
C1131      C1132   1.394   1_556  A
C1131      C1395   1.470       .  S
C1132      C1415   1.403       .  A
C1132      H1136   1.085       .  S
C1133      C1414   1.403       .  A
C1133      C1134   1.408       .  A
C1133      C1405   1.489       .  S
C1134      H1137   1.083       .  S
C1138      C1139   1.412       .  A
C1138      C1143   1.415       .  A
C1138      C1280   1.486       .  S
C1139      C1140   1.396       .  A
C1139      H1144   1.083       .  S
C1140      C1141   1.394       .  A
C1140      C1385   1.470       .  S
C1141      C1142   1.401       .  A
C1141      H1145   1.085       .  S
C1142      C1143   1.407       .  A
C1142      C1402   1.486       .  S
C1143      H1146   1.083       .  S
C1147      C1148   1.411       .  A
C1147      C1152   1.412       .  A
C1147      C1279   1.484       .  S
C1148      C1149   1.397       .  A
C1148      H1153   1.084       .  S
C1149      C1150   1.398       .  A
C1149      C1382   1.470       .  S
C1150      C1151   1.399       .  A
C1150      H1154   1.085       .  S
C1151      C1152   1.402       .  A
C1151      C1654   1.474       .  S
C1152      H1155   1.083       .  S
C1156      C1157   1.410       .  A
C1156      C1161   1.412       .  A
C1156      C1531   1.483       .  S
C1157      C1158   1.398   1_554  A
C1157      H1162   1.084   1_554  S
C1158      C1159   1.398   1_556  A
C1158      C1392   1.470       .  S
C1159      C1160   1.398       .  A
C1159      H1163   1.085       .  S
C1160      C1161   1.402       .  A
C1160      C1375   1.474       .  S
C1161      H1164   1.083       .  S
C1165      C1166   1.413       .  A
C1165      C1170   1.415       .  A
C1165      C1284   1.485       .  S
C1166      C1167   1.398       .  A
C1166      H1171   1.083       .  S
C1167      C1168   1.397       .  A
C1167      C1362   1.477       .  S
C1168      C1169   1.399       .  A
C1168      H1172   1.085       .  S
C1169      C1170   1.403       .  A
C1169      C1352   1.483       .  S
C1170      H1173   1.083       .  S
C1174      C1175   1.413       .  A
C1174      C1179   1.414       .  A
C1174      C1281   1.485       .  S
C1175      C1176   1.398       .  A
C1175      H1180   1.083       .  S
C1176      C1177   1.397       .  A
C1176      C1365   1.475       .  S
C1177      C1178   1.400       .  A
C1177      H1181   1.085       .  S
C1178      C1179   1.403       .  A
C1178      C1342   1.480       .  S
C1179      H1182   1.083       .  S
C1183      C1184   1.415       .  A
C1183      C1188   1.413       .  A
C1183      C1282   1.486       .  S
C1184      C1185   1.404       .  A
C1184      H1189   1.083       .  S
C1185      C1186   1.400       .  A
C1185      C1345   1.483       .  S
C1186      C1187   1.397       .  A
C1186      H1190   1.085       .  S
C1187      C1188   1.399       .  A
C1187      C1335   1.477       .  S
C1188      H1191   1.083       .  S
C1192      C1193   1.414       .  A
C1192      C1197   1.412       .  A
C1192      C1283   1.484       .  S
C1193      C1194   1.403       .  A
C1193      H1198   1.083       .  S
C1194      C1195   1.400       .  A
C1194      C1355   1.481       .  S
C1195      C1196   1.397       .  A
C1195      H1199   1.085       .  S
C1196      C1197   1.398       .  A
C1196      C1332   1.475       .  S
C1197      H1200   1.083       .  S
C1201      C1202   1.411       .  A
C1201      C1206   1.412       .  A
C1201      C1285   1.481       .  S
C1202      C1203   1.398       .  A
C1202      H1207   1.083       .  S
C1203      C1204   1.396       .  A
C1203      C1322   1.470       .  S
C1204      C1205   1.399       .  A
C1204      H1208   1.085       .  S
C1205      C1206   1.401       .  A
C1205      C1312   1.474       .  S
C1206      H1209   1.083       .  S
C1210      C1211   1.410       .  A
C1210      C1215   1.411       .  A
C1210      C1250   1.481       .  S
C1211      C1212   1.399       .  A
C1211      H1216   1.084       .  S
C1212      C1213   1.397       .  A
C1212      C1325   1.469       .  S
C1213      C1214   1.397       .  A
C1213      H1217   1.085       .  S
C1214      C1215   1.399       .  A
C1214      C1302   1.470       .  S
C1215      H1218   1.084       .  S
C1219      C1220   1.412       .  A
C1219      C1224   1.411       .  A
C1219      C1286   1.482       .  S
C1220      C1221   1.400       .  A
C1220      H1225   1.083       .  S
C1221      C1222   1.398       .  A
C1221      C1315   1.474       .  S
C1222      C1223   1.397       .  A
C1222      H1226   1.085       .  S
C1223      C1224   1.399       .  A
C1223      C1292   1.472       .  S
C1224      H1227   1.083       .  S
C1228      C1229   1.411       .  A
C1228      C1233   1.412       .  A
C1228      C1251   1.481       .  S
C1229      C1230   1.398       .  A
C1229      H1234   1.083       .  S
C1230      C1231   1.396       .  A
C1230      C1305   1.469       .  S
C1231      C1232   1.398       .  A
C1231      H1235   1.085       .  S
C1232      C1233   1.400       .  A
C1232      C1295   1.474       .  S
C1233      H1236   1.083       .  S
O1237     Zr1273   2.433       .  S
O1237      C1248   1.292       .  A
O1238     Zr1272   2.436       .  S
O1238      C1249   1.293       .  A
O1239     Zr1245   2.436       .  S
O1239      C1250   1.293       .  A
O1240     Zr1527   2.433       .  S
O1240      C1251   1.292       .  A
O1241     Zr1275   2.435       .  S
O1241      C1251   1.292       .  A
O1242     Zr1274   2.431       .  S
O1242      C1250   1.292       .  A
O1243      C1249   1.292       .  A
O1244     Zr1245   2.445       .  S
O1244      C1248   1.293       .  A
Zr1245     O1522   2.433       .  S
Zr1245     O1247   2.338       .  S
Zr1245     O1537   2.340       .  S
O1246     Zr1554   2.337       .  S
O1247     Zr1273   2.336       .  S
O1247     Zr1274   2.339       .  S
C1249      C1438   1.483       .  S
H1252      O1253   0.966       .  S
O1253     Zr1272   2.338       .  S
H1254      O1255   0.966       .  S
O1255     Zr1527   2.340       .  S
O1255     Zr1555   2.337       .  S
O1255     Zr1275   2.340       .  S
O1256     Zr1836   2.433   1_545  S
O1256      C1279   1.292       .  A
O1257     Zr1837   2.436   1_545  S
O1257      C1280   1.293       .  A
O1258      C1281   1.293       .  A
O1259      C1282   1.293       .  A
O1260     Zr1275   2.440       .  S
O1260      C1283   1.293       .  A
O1261     Zr1274   2.440       .  S
O1261      C1284   1.293       .  A
O1262     Zr1276   2.433       .  S
O1262      C1285   1.292       .  A
O1263     Zr1558   2.437   1_554  S
O1263      C1286   1.293       .  A
O1264     Zr1838   2.436   1_545  S
O1264      C1285   1.292       .  A
O1265     Zr1839   2.432   1_545  S
O1265      C1286   1.292       .  A
O1266     Zr1272   2.435       .  S
O1266      C1281   1.293       .  A
O1267     Zr1273   2.435       .  S
O1267      C1284   1.293       .  A
O1268     Zr1555   2.436       .  S
O1268      C1283   1.293       .  A
O1269     Zr1554   2.437       .  S
O1269      C1282   1.293       .  A
O1270      C1279   1.293       .  A
O1271     Zr1276   2.444       .  S
O1271      C1280   1.293       .  A
Zr1272     O1820   2.433       .  S
Zr1272     O1551   2.438       .  S
Zr1272     O1528   2.337       .  S
Zr1272     O1842   2.337       .  S
Zr1272     O2136   2.338       .  S
Zr1273     O1821   2.436       .  S
Zr1273     O1550   2.436       .  S
Zr1273     O1537   2.337       .  S
Zr1273     O2123   2.337       .  S
Zr1273     O1852   2.337       .  S
Zr1274     O1828   2.436       .  S
Zr1274     O1852   2.339       .  S
Zr1275     O1829   2.432       .  S
Zr1275     O1841   2.340       .  S
Zr1276     O1545   2.437       .  S
Zr1276     O1559   2.339       .  S
Zr1276     O1288   2.341       .  S
O1277     Zr2119   2.337   1_545  S
O1277     Zr1839   2.340   1_545  S
O1277     Zr1558   2.339   1_554  S
O1278     Zr1836   2.337   1_545  S
H1287      O1288   0.965       .  S
O1288     Zr1837   2.337   1_545  S
O1288     Zr1838   2.339   1_545  S
H1289      O1290   0.966       .  S
O1290     Zr2118   2.338   1_545  S
C1291      C1292   1.401       .  A
C1291      C1296   1.393       .  A
C1291      H1298   1.084       .  S
C1293      C1294   1.402       .  A
C1293      F1300   1.358       .  S
C1294      H1299   1.083       .  S
C1295      C1296   1.404       .  A
C1296      F1297   1.358       .  S
C1301      C1302   1.402       .  A
C1301      C1306   1.398       .  A
C1301      H1308   1.083       .  S
C1303      C1304   1.397       .  A
C1303      F1310   1.357       .  S
C1304      H1309   1.083       .  S
C1305      C1306   1.404       .  A
C1306      F1307   1.357       .  S
C1311      C1316   1.393       .  A
C1311      H1318   1.084       .  S
C1312      C1313   1.406       .  A
C1313      C1314   1.402       .  A
C1313      F1320   1.358       .  S
C1314      C1315   1.404       .  A
C1314      H1319   1.083       .  S
C1316      F1317   1.358       .  S
C1321      C1326   1.399       .  A
C1321      H1328   1.083       .  S
C1322      C1323   1.403       .  A
C1323      C1324   1.396       .  A
C1323      F1330   1.357       .  S
C1324      C1325   1.401       .  A
C1324      H1329   1.083       .  S
C1326      F1327   1.357       .  S
C1331      C1332   1.401       .  A
C1331      C1336   1.393       .  A
C1331      H1338   1.084       .  S
C1332      C1897   1.406       .  A
C1333      C1896   1.406   1_545  A
C1333      C1334   1.403       .  A
C1333      F1340   1.357       .  S
C1334      C1899   1.405   1_545  A
C1334      H1339   1.083       .  S
C1335      C1898   1.405       .  A
C1335      C1336   1.405       .  A
C1336      F1337   1.358       .  S
C1341      C1342   1.406       .  A
C1341      C1346   1.406       .  A
C1341      H1912   1.083       .  S
C1342      C1343   1.405       .  A
C1343      C1344   1.392       .  A
C1343      F1350   1.358       .  S
C1344      C1345   1.404       .  A
C1344      H1349   1.084       .  S
C1345      C1346   1.408       .  A
C1346      F1911   1.357       .  S
F1347      C1910   1.357       .  S
H1348      C1905   1.083       .  S
C1351      C1352   1.406       .  A
C1351      C1356   1.406       .  A
C1351      H1358   1.083       .  S
C1352      C1353   1.407       .  A
C1353      C1354   1.392       .  A
C1353      F1924   1.358       .  S
C1354      C1355   1.402       .  A
C1354      H1923   1.084       .  S
C1355      C1356   1.408       .  A
C1356      F1357   1.357       .  S
H1359      C1918   1.084       .  S
F1360      C1917   1.358       .  S
C1361      C1926   1.403   1_545  A
C1361      C1366   1.392       .  A
C1361      H1368   1.084       .  S
C1362      C1925   1.403       .  A
C1362      C1363   1.406       .  A
C1363      C1364   1.403       .  A
C1363      F1370   1.357       .  S
C1364      C1365   1.405       .  A
C1364      H1369   1.083       .  S
C1365      C1930   1.403       .  A
C1366      C1929   1.403   1_545  A
C1366      F1367   1.358       .  S
C1371      C1654   1.403       .  A
C1371      C1376   1.400       .  A
C1371      H1378   1.083       .  S
C1372      C1653   1.403   1_554  A
C1372      C1373   1.404       .  A
C1372      C1433   1.474   1_554  S
C1373      C1374   1.399       .  A
C1373      F1380   1.357       .  S
C1374      C1375   1.403       .  A
C1374      H1379   1.083       .  S
C1375      C1658   1.404   1_554  A
C1376      C1657   1.404       .  A
C1376      F1377   1.357       .  S
C1381      C1664   1.401   1_554  A
C1381      C1386   1.396       .  A
C1381      H1388   1.083       .  S
C1382      C1663   1.401       .  A
C1382      C1383   1.405       .  A
C1383      C1384   1.400       .  A
C1383      F1390   1.357       .  S
C1384      C1385   1.403       .  A
C1384      H1389   1.083       .  S
C1385      C1668   1.404       .  A
C1386      C1667   1.404   1_554  A
C1386      F1387   1.358       .  S
C1391      C1392   1.402   1_554  A
C1391      C1396   1.398       .  A
C1391      H1398   1.083       .  S
C1392      C1675   1.404       .  A
C1393      C1674   1.404       .  A
C1393      C1394   1.398       .  A
C1393      F1400   1.357       .  S
C1394      C1677   1.402       .  A
C1394      H1399   1.083       .  S
C1395      C1676   1.402       .  A
C1395      C1396   1.404   1_556  A
C1396      F1397   1.358       .  S
C1401      C1684   1.407   1_556  A
C1401      C1406   1.407       .  A
C1401      H1408   1.083       .  S
C1402      C1683   1.407       .  A
C1402      C1403   1.407       .  A
C1403      C1404   1.391       .  A
C1403      F1410   1.358       .  S
C1404      C1405   1.404       .  A
C1404      H1409   1.084       .  S
C1405      C1688   1.410       .  A
C1406      C1687   1.410   1_556  A
C1406      F1407   1.357       .  S
C1411      C1416   1.416       .  A
C1411      C1530   1.486       .  S
C1412      C1413   1.395       .  A
C1412      H1417   1.083       .  S
C1413      C1414   1.394       .  A
C1413      C1677   1.470       .  S
C1414      H1418   1.085       .  S
C1415      C1416   1.408       .  A
C1415      C1687   1.488       .  S
C1416      H1419   1.083       .  S
C1420      C1421   1.412       .  A
C1420      C1425   1.415       .  A
C1420      C1562   1.486       .  S
C1421      C1422   1.396       .  A
C1421      H1426   1.083       .  S
C1422      C1423   1.394       .  A
C1422      C1667   1.470       .  S
C1423      C1424   1.401       .  A
C1423      H1427   1.085       .  S
C1424      C1425   1.407       .  A
C1424      C1684   1.486   1_556  S
C1425      H1428   1.083   1_556  S
C1429      C1430   1.411       .  A
C1429      C1434   1.412       .  A
C1429      C1561   1.484       .  S
C1430      C1431   1.397       .  A
C1430      H1435   1.084       .  S
C1431      C1432   1.398       .  A
C1431      C1664   1.470       .  S
C1432      C1433   1.399       .  A
C1432      H1436   1.085       .  S
C1433      C1434   1.402       .  A
C1434      H1437   1.083   1_556  S
C1438      C1439   1.410       .  A
C1438      C1443   1.412       .  A
C1439      C1440   1.397       .  A
C1439      H1444   1.084       .  S
C1440      C1441   1.398       .  A
C1440      C1674   1.470       .  S
C1441      C1442   1.398       .  A
C1441      H1445   1.085       .  S
C1442      C1443   1.402       .  A
C1442      C1657   1.474       .  S
C1443      H1446   1.083       .  S
C1447      C1448   1.413       .  A
C1447      C1452   1.415       .  A
C1447      C1566   1.485       .  S
C1448      C1449   1.398       .  A
C1448      H1453   1.083       .  S
C1449      C1450   1.397       .  A
C1449      C1644   1.477       .  S
C1450      C1451   1.399       .  A
C1450      H1454   1.085       .  S
C1451      C1452   1.403       .  A
C1451      C1634   1.483       .  S
C1452      H1455   1.083       .  S
C1456      C1457   1.413       .  A
C1456      C1461   1.414       .  A
C1456      C1563   1.485       .  S
C1457      C1458   1.398       .  A
C1457      H1462   1.083       .  S
C1458      C1459   1.397       .  A
C1458      C1647   1.475       .  S
C1459      C1460   1.400       .  A
C1459      H1463   1.085       .  S
C1460      C1461   1.403       .  A
C1460      C1624   1.480       .  S
C1461      H1464   1.083       .  S
C1465      C1466   1.415       .  A
C1465      C1470   1.413       .  A
C1465      C1564   1.486       .  S
C1466      C1467   1.404       .  A
C1466      H1471   1.083       .  S
C1467      C1468   1.400       .  A
C1467      C1627   1.483       .  S
C1468      C1469   1.397       .  A
C1468      H1472   1.085       .  S
C1469      C1470   1.399       .  A
C1469      C1617   1.477       .  S
C1470      H1473   1.083       .  S
C1474      C1475   1.414       .  A
C1474      C1479   1.412       .  A
C1474      C1565   1.484       .  S
C1475      C1476   1.403       .  A
C1475      H1480   1.083       .  S
C1476      C1477   1.400       .  A
C1476      C1637   1.481       .  S
C1477      C1478   1.397       .  A
C1477      H1481   1.085       .  S
C1478      C1479   1.398       .  A
C1478      C1614   1.475       .  S
C1479      H1482   1.083       .  S
C1483      C1484   1.411       .  A
C1483      C1488   1.412       .  A
C1483      C1567   1.481       .  S
C1484      C1485   1.398       .  A
C1484      H1489   1.083       .  S
C1485      C1486   1.396       .  A
C1485      C1604   1.470       .  S
C1486      C1487   1.399       .  A
C1486      H1490   1.085       .  S
C1487      C1488   1.401       .  A
C1487      C1594   1.474       .  S
C1488      H1491   1.083       .  S
C1492      C1493   1.410       .  A
C1492      C1497   1.411       .  A
C1492      C1532   1.481       .  S
C1493      C1494   1.399       .  A
C1493      H1498   1.084       .  S
C1494      C1495   1.397       .  A
C1494      C1607   1.469       .  S
C1495      C1496   1.397       .  A
C1495      H1499   1.085       .  S
C1496      C1497   1.399       .  A
C1496      C1584   1.470       .  S
C1497      H1500   1.084       .  S
C1501      C1502   1.412       .  A
C1501      C1506   1.411       .  A
C1501      C1568   1.482       .  S
C1502      C1503   1.400       .  A
C1502      H1507   1.083       .  S
C1503      C1504   1.398       .  A
C1503      C1597   1.474       .  S
C1504      C1505   1.397       .  A
C1504      H1508   1.085       .  S
C1505      C1506   1.399       .  A
C1505      C1574   1.472       .  S
C1506      H1509   1.083       .  S
C1510      C1511   1.411       .  A
C1510      C1515   1.412       .  A
C1510      C1533   1.481       .  S
C1511      C1512   1.398       .  A
C1511      H1516   1.083       .  S
C1512      C1513   1.396       .  A
C1512      C1587   1.469       .  S
C1513      C1514   1.398       .  A
C1513      H1517   1.085       .  S
C1514      C1515   1.400       .  A
C1514      C1577   1.474       .  S
C1515      H1518   1.083       .  S
O1519     Zr1555   2.433       .  S
O1519      C1530   1.292       .  A
O1520     Zr1554   2.436       .  S
O1520      C1531   1.293       .  A
O1521     Zr1527   2.436   1_556  S
O1521      C1532   1.293       .  A
O1522      C1533   1.292       .  A
O1523     Zr1557   2.435       .  S
O1523      C1533   1.292       .  A
O1524     Zr1556   2.431       .  S
O1524      C1532   1.292       .  A
O1525      C1531   1.292       .  A
O1526     Zr1527   2.445       .  S
O1526      C1530   1.293       .  A
Zr1527     O1529   2.338   1_554  S
O1529     Zr1555   2.336   1_556  S
O1529     Zr1556   2.339       .  S
H1534      O1535   0.966       .  S
O1535     Zr1554   2.338   1_556  S
H1536      O1537   0.966       .  S
O1537     Zr1557   2.340       .  S
O1538     Zr2118   2.433   1_546  S
O1538      C1561   1.292       .  A
O1539     Zr2119   2.435   1_546  S
O1539      C1562   1.293       .  A
O1540      C1563   1.293       .  A
O1541      C1564   1.293       .  A
O1542     Zr1557   2.440       .  S
O1542      C1565   1.293       .  A
O1543     Zr1556   2.439       .  S
O1543      C1566   1.293       .  A
O1544     Zr1558   2.433       .  S
O1544      C1567   1.292       .  A
O1545      C1568   1.293       .  A
O1546     Zr2120   2.436   1_545  S
O1546      C1567   1.292       .  A
O1547     Zr2121   2.432   1_545  S
O1547      C1568   1.292       .  A
O1548     Zr1554   2.435   1_556  S
O1548      C1563   1.293       .  A
O1549     Zr1555   2.435   1_556  S
O1549      C1566   1.293       .  A
O1550      C1565   1.293       .  A
O1551      C1564   1.293       .  A
O1552      C1561   1.293       .  A
O1553     Zr1558   2.444       .  S
O1553      C1562   1.293       .  A
Zr1554     O2102   2.433   1_554  S
Zr1554     O2124   2.337   1_554  S
Zr1554     O1854   2.338       .  S
Zr1555     O2103   2.435   1_554  S
Zr1555     O1841   2.337       .  S
Zr1555     O2134   2.337   1_554  S
Zr1556     O2110   2.436       .  S
Zr1556     O2134   2.339       .  S
Zr1557     O2111   2.432       .  S
Zr1557     O2123   2.340       .  S
Zr1558     O1570   2.341       .  S
O1559     Zr1837   2.337   1_545  S
O1559     Zr2121   2.340   1_545  S
O1560     Zr2118   2.337   1_546  S
H1569      O1570   0.965       .  S
O1570     Zr2119   2.337   1_546  S
O1570     Zr2120   2.339   1_545  S
H1571      O1572   0.966       .  S
O1572     Zr1836   2.338   1_545  S
C1573      C1574   1.401       .  A
C1573      C1578   1.393       .  A
C1573      H1580   1.084       .  S
C1575      C1576   1.402       .  A
C1575      F1582   1.358       .  S
C1576      H1581   1.083       .  S
C1577      C1578   1.404       .  A
C1578      F1579   1.358       .  S
C1583      C1584   1.402       .  A
C1583      C1588   1.398       .  A
C1583      H1590   1.083       .  S
C1585      C1586   1.397       .  A
C1585      F1592   1.357       .  S
C1586      H1591   1.083       .  S
C1587      C1588   1.404       .  A
C1588      F1589   1.357       .  S
C1593      C1598   1.393       .  A
C1593      H1600   1.084       .  S
C1594      C1595   1.406       .  A
C1595      C1596   1.402       .  A
C1595      F1602   1.358       .  S
C1596      C1597   1.404       .  A
C1596      H1601   1.083       .  S
C1598      F1599   1.358       .  S
C1603      C1608   1.399       .  A
C1603      H1610   1.083       .  S
C1604      C1605   1.403       .  A
C1605      C1606   1.396       .  A
C1605      F1612   1.357       .  S
C1606      C1607   1.401       .  A
C1606      H1611   1.083       .  S
C1608      F1609   1.357       .  S
C1613      C1614   1.401       .  A
C1613      C1618   1.393       .  A
C1613      H1620   1.084       .  S
C1614      C2179   1.406       .  A
C1615      C2178   1.406   1_545  A
C1615      C1616   1.403       .  A
C1615      F1622   1.357       .  S
C1616      C2181   1.405   1_545  A
C1616      H1621   1.083       .  S
C1617      C2180   1.405       .  A
C1617      C1618   1.405       .  A
C1618      F1619   1.358       .  S
C1623      C1624   1.406       .  A
C1623      C1628   1.406       .  A
C1623      H2194   1.083       .  S
C1624      C1625   1.405       .  A
C1625      C1626   1.392       .  A
C1625      F1632   1.358       .  S
C1626      C1627   1.404       .  A
C1626      H1631   1.084       .  S
C1627      C1628   1.408       .  A
C1628      F2193   1.357       .  S
F1629      C2192   1.357       .  S
H1630      C2187   1.083       .  S
C1633      C1634   1.406       .  A
C1633      C1638   1.406       .  A
C1633      H1640   1.083       .  S
C1634      C1635   1.407       .  A
C1635      C1636   1.392       .  A
C1635      F2206   1.358       .  S
C1636      C1637   1.402       .  A
C1636      H2205   1.084       .  S
C1637      C1638   1.408       .  A
C1638      F1639   1.357       .  S
H1641      C2200   1.084       .  S
F1642      C2199   1.358       .  S
C1643      C2208   1.403   1_545  A
C1643      C1648   1.392       .  A
C1643      H1650   1.084       .  S
C1644      C2207   1.403       .  A
C1644      C1645   1.406       .  A
C1645      C1646   1.403       .  A
C1645      F1652   1.357       .  S
C1646      C1647   1.405       .  A
C1646      H1651   1.083       .  S
C1647      C2212   1.403       .  A
C1648      C2211   1.403   1_545  A
C1648      F1649   1.358       .  S
C1653      C1658   1.400       .  A
C1653      H1660   1.083       .  S
C1654      C1655   1.404       .  A
C1655      C1656   1.399       .  A
C1655      F1662   1.357       .  S
C1656      C1657   1.403       .  A
C1656      H1661   1.083       .  S
C1658      F1659   1.357       .  S
C1663      C1668   1.396       .  A
C1663      H1670   1.083       .  S
C1664      C1665   1.405       .  A
C1665      C1666   1.400       .  A
C1665      F1672   1.357       .  S
C1666      C1667   1.403       .  A
C1666      H1671   1.083       .  S
C1668      F1669   1.358       .  S
C1673      C1674   1.402       .  A
C1673      C1678   1.398       .  A
C1673      H1680   1.083       .  S
C1675      C1676   1.398       .  A
C1675      F1682   1.357       .  S
C1676      H1681   1.083       .  S
C1677      C1678   1.404       .  A
C1678      F1679   1.358       .  S
C1683      C1688   1.407       .  A
C1683      H1690   1.083       .  S
C1684      C1685   1.407       .  A
C1685      C1686   1.391       .  A
C1685      F1692   1.358       .  S
C1686      C1687   1.404       .  A
C1686      H1691   1.084       .  S
C1688      F1689   1.357       .  S
C1693      C1976   1.412       .  A
C1693      C1698   1.416       .  A
C1693      C1812   1.486       .  S
C1694      C1975   1.412   1_556  A
C1694      C1695   1.395       .  A
C1694      H1699   1.083       .  S
C1695      C1696   1.394   1_556  A
C1695      C1959   1.470       .  S
C1696      C1979   1.403       .  A
C1696      H1700   1.085       .  S
C1697      C1978   1.403       .  A
C1697      C1698   1.408       .  A
C1697      C1969   1.489       .  S
C1698      H1701   1.083       .  S
C1702      C1703   1.412       .  A
C1702      C1707   1.415       .  A
C1702      C1844   1.486       .  S
C1703      C1704   1.396       .  A
C1703      H1708   1.083       .  S
C1704      C1705   1.394       .  A
C1704      C1949   1.470       .  S
C1705      C1706   1.401       .  A
C1705      H1709   1.085       .  S
C1706      C1707   1.407       .  A
C1706      C1966   1.486       .  S
C1707      H1710   1.083       .  S
C1711      C1712   1.411       .  A
C1711      C1716   1.412       .  A
C1711      C1843   1.484       .  S
C1712      C1713   1.397       .  A
C1712      H1717   1.084       .  S
C1713      C1714   1.398       .  A
C1713      C1946   1.470       .  S
C1714      C1715   1.399       .  A
C1714      H1718   1.085       .  S
C1715      C1716   1.402       .  A
C1715      C2218   1.474       .  S
C1716      H1719   1.083       .  S
C1720      C1721   1.410       .  A
C1720      C1725   1.412       .  A
C1720      C2095   1.483       .  S
C1721      C1722   1.398   1_554  A
C1721      H1726   1.084   1_554  S
C1722      C1723   1.398   1_556  A
C1722      C1956   1.470       .  S
C1723      C1724   1.398       .  A
C1723      H1727   1.085       .  S
C1724      C1725   1.402       .  A
C1724      C1939   1.474       .  S
C1725      H1728   1.083       .  S
C1729      C1730   1.413       .  A
C1729      C1734   1.415       .  A
C1729      C1848   1.485       .  S
C1730      C1731   1.398       .  A
C1730      H1735   1.083       .  S
C1731      C1732   1.397       .  A
C1731      C1926   1.477       .  S
C1732      C1733   1.399       .  A
C1732      H1736   1.085       .  S
C1733      C1734   1.403       .  A
C1733      C1916   1.483       .  S
C1734      H1737   1.083       .  S
C1738      C1739   1.413       .  A
C1738      C1743   1.414       .  A
C1738      C1845   1.485       .  S
C1739      C1740   1.398       .  A
C1739      H1744   1.083       .  S
C1740      C1741   1.397       .  A
C1740      C1929   1.475       .  S
C1741      C1742   1.400       .  A
C1741      H1745   1.085       .  S
C1742      C1743   1.403       .  A
C1742      C1906   1.480       .  S
C1743      H1746   1.083       .  S
C1747      C1748   1.415       .  A
C1747      C1752   1.413       .  A
C1747      C1846   1.486       .  S
C1748      C1749   1.404       .  A
C1748      H1753   1.083       .  S
C1749      C1750   1.400       .  A
C1749      C1909   1.483       .  S
C1750      C1751   1.397       .  A
C1750      H1754   1.085       .  S
C1751      C1752   1.399       .  A
C1751      C1899   1.477       .  S
C1752      H1755   1.083       .  S
C1756      C1757   1.414       .  A
C1756      C1761   1.412       .  A
C1756      C1847   1.484       .  S
C1757      C1758   1.403       .  A
C1757      H1762   1.083       .  S
C1758      C1759   1.400       .  A
C1758      C1919   1.481       .  S
C1759      C1760   1.397       .  A
C1759      H1763   1.085       .  S
C1760      C1761   1.398       .  A
C1760      C1896   1.475       .  S
C1761      H1764   1.083       .  S
C1765      C1766   1.411       .  A
C1765      C1770   1.412       .  A
C1765      C1849   1.481       .  S
C1766      C1767   1.398       .  A
C1766      H1771   1.083       .  S
C1767      C1768   1.396       .  A
C1767      C1886   1.470       .  S
C1768      C1769   1.399       .  A
C1768      H1772   1.085       .  S
C1769      C1770   1.401       .  A
C1769      C1876   1.474       .  S
C1770      H1773   1.083       .  S
C1774      C1775   1.410       .  A
C1774      C1779   1.411       .  A
C1774      C1814   1.481       .  S
C1775      C1776   1.399       .  A
C1775      H1780   1.084       .  S
C1776      C1777   1.397       .  A
C1776      C1889   1.469       .  S
C1777      C1778   1.397       .  A
C1777      H1781   1.085       .  S
C1778      C1779   1.399       .  A
C1778      C1866   1.470       .  S
C1779      H1782   1.084       .  S
C1783      C1784   1.412       .  A
C1783      C1788   1.411       .  A
C1783      C1850   1.482       .  S
C1784      C1785   1.400       .  A
C1784      H1789   1.083       .  S
C1785      C1786   1.398       .  A
C1785      C1879   1.474       .  S
C1786      C1787   1.397       .  A
C1786      H1790   1.085       .  S
C1787      C1788   1.399       .  A
C1787      C1856   1.472       .  S
C1788      H1791   1.083       .  S
C1792      C1793   1.411       .  A
C1792      C1797   1.412       .  A
C1792      C1815   1.481       .  S
C1793      C1794   1.398       .  A
C1793      H1798   1.083       .  S
C1794      C1795   1.396       .  A
C1794      C1869   1.469       .  S
C1795      C1796   1.398       .  A
C1795      H1799   1.085       .  S
C1796      C1797   1.400       .  A
C1796      C1859   1.474       .  S
C1797      H1800   1.083       .  S
O1801     Zr1837   2.433       .  S
O1801      C1812   1.292       .  A
O1802     Zr1836   2.436       .  S
O1802      C1813   1.293       .  A
O1803     Zr1809   2.436       .  S
O1803      C1814   1.293       .  A
O1804     Zr2091   2.433       .  S
O1804      C1815   1.292       .  A
O1805     Zr1839   2.435       .  S
O1805      C1815   1.292       .  A
O1806     Zr1838   2.431       .  S
O1806      C1814   1.292       .  A
O1807      C1813   1.292       .  A
O1808     Zr1809   2.445       .  S
O1808      C1812   1.293       .  A
Zr1809     O2086   2.433       .  S
Zr1809     O1811   2.338       .  S
Zr1809     O2101   2.340       .  S
O1810     Zr2118   2.337       .  S
O1811     Zr1837   2.336       .  S
O1811     Zr1838   2.339       .  S
C1813      C2002   1.483       .  S
H1816      O1817   0.966       .  S
O1817     Zr1836   2.338       .  S
H1818      O1819   0.966       .  S
O1819     Zr2091   2.340       .  S
O1819     Zr2119   2.337       .  S
O1819     Zr1839   2.340       .  S
O1820      C1843   1.292       .  A
O1821      C1844   1.293       .  A
O1822      C1845   1.293       .  A
O1823      C1846   1.293       .  A
O1824     Zr1839   2.440       .  S
O1824      C1847   1.293       .  A
O1825     Zr1838   2.440       .  S
O1825      C1848   1.293       .  A
O1826     Zr1840   2.433       .  S
O1826      C1849   1.292       .  A
O1827     Zr2122   2.437   1_554  S
O1827      C1850   1.293       .  A
O1828      C1849   1.292       .  A
O1829      C1850   1.292       .  A
O1830     Zr1836   2.435       .  S
O1830      C1845   1.293       .  A
O1831     Zr1837   2.435       .  S
O1831      C1848   1.293       .  A
O1832     Zr2119   2.436       .  S
O1832      C1847   1.293       .  A
O1833     Zr2118   2.437       .  S
O1833      C1846   1.293       .  A
O1834      C1843   1.293       .  A
O1835     Zr1840   2.444       .  S
O1835      C1844   1.293       .  A
Zr1836     O2115   2.438       .  S
Zr1836     O2092   2.337       .  S
Zr1837     O2114   2.436       .  S
Zr1837     O2101   2.337       .  S
Zr1840     O2109   2.437       .  S
Zr1840     O2123   2.339       .  S
Zr1840     O1852   2.341       .  S
O1841     Zr2122   2.339   1_554  S
H1851      O1852   0.965       .  S
H1853      O1854   0.966       .  S
C1855      C1856   1.401       .  A
C1855      C1860   1.393       .  A
C1855      H1862   1.084       .  S
C1857      C1858   1.402       .  A
C1857      F1864   1.358       .  S
C1858      H1863   1.083       .  S
C1859      C1860   1.404       .  A
C1860      F1861   1.358       .  S
C1865      C1866   1.402       .  A
C1865      C1870   1.398       .  A
C1865      H1872   1.083       .  S
C1867      C1868   1.397       .  A
C1867      F1874   1.357       .  S
C1868      H1873   1.083       .  S
C1869      C1870   1.404       .  A
C1870      F1871   1.357       .  S
C1875      C1880   1.393       .  A
C1875      H1882   1.084       .  S
C1876      C1877   1.406       .  A
C1877      C1878   1.402       .  A
C1877      F1884   1.358       .  S
C1878      C1879   1.404       .  A
C1878      H1883   1.083       .  S
C1880      F1881   1.358       .  S
C1885      C1890   1.399       .  A
C1885      H1892   1.083       .  S
C1886      C1887   1.403       .  A
C1887      C1888   1.396       .  A
C1887      F1894   1.357       .  S
C1888      C1889   1.401       .  A
C1888      H1893   1.083       .  S
C1890      F1891   1.357       .  S
C1895      C1896   1.401       .  A
C1895      C1900   1.393       .  A
C1895      H1902   1.084       .  S
C1897      C1898   1.403       .  A
C1897      F1904   1.357       .  S
C1898      H1903   1.083       .  S
C1899      C1900   1.405       .  A
C1900      F1901   1.358       .  S
C1905      C1906   1.406   1_545  A
C1905      C1910   1.406       .  A
C1906      C1907   1.405       .  A
C1907      C1908   1.392       .  A
C1907      F1914   1.358       .  S
C1908      C1909   1.404       .  A
C1908      H1913   1.084       .  S
C1909      C1910   1.408   1_565  A
C1915      C1916   1.406       .  A
C1915      C1920   1.406       .  A
C1915      H1922   1.083       .  S
C1916      C1917   1.407   1_565  A
C1917      C1918   1.392       .  A
C1918      C1919   1.402   1_545  A
C1919      C1920   1.408       .  A
C1920      F1921   1.357       .  S
C1925      C1930   1.392       .  A
C1925      H1932   1.084       .  S
C1926      C1927   1.406       .  A
C1927      C1928   1.403       .  A
C1927      F1934   1.357       .  S
C1928      C1929   1.405       .  A
C1928      H1933   1.083       .  S
C1930      F1931   1.358       .  S
C1935      C2218   1.403       .  A
C1935      C1940   1.400       .  A
C1935      H1942   1.083       .  S
C1936      C2217   1.403   1_554  A
C1936      C1937   1.404       .  A
C1936      C1997   1.474   1_554  S
C1937      C1938   1.399       .  A
C1937      F1944   1.357       .  S
C1938      C1939   1.403       .  A
C1938      H1943   1.083       .  S
C1939      C2222   1.404   1_554  A
C1940      C2221   1.404       .  A
C1940      F1941   1.357       .  S
C1945      C2228   1.401   1_554  A
C1945      C1950   1.396       .  A
C1945      H1952   1.083       .  S
C1946      C2227   1.401       .  A
C1946      C1947   1.405       .  A
C1947      C1948   1.400       .  A
C1947      F1954   1.357       .  S
C1948      C1949   1.403       .  A
C1948      H1953   1.083       .  S
C1949      C2232   1.404       .  A
C1950      C2231   1.404   1_554  A
C1950      F1951   1.358       .  S
C1955      C1956   1.402   1_554  A
C1955      C1960   1.398       .  A
C1955      H1962   1.083       .  S
C1956      C2239   1.404       .  A
C1957      C2238   1.404       .  A
C1957      C1958   1.398       .  A
C1957      F1964   1.357       .  S
C1958      C2241   1.402       .  A
C1958      H1963   1.083       .  S
C1959      C2240   1.402       .  A
C1959      C1960   1.404   1_556  A
C1960      F1961   1.358       .  S
C1965      C2248   1.407   1_556  A
C1965      C1970   1.407       .  A
C1965      H1972   1.083       .  S
C1966      C2247   1.407       .  A
C1966      C1967   1.407       .  A
C1967      C1968   1.391       .  A
C1967      F1974   1.358       .  S
C1968      C1969   1.404       .  A
C1968      H1973   1.084       .  S
C1969      C2252   1.410       .  A
C1970      C2251   1.410   1_556  A
C1970      F1971   1.357       .  S
C1975      C1980   1.416       .  A
C1975      C2094   1.486       .  S
C1976      C1977   1.395       .  A
C1976      H1981   1.083       .  S
C1977      C1978   1.394       .  A
C1977      C2241   1.470       .  S
C1978      H1982   1.085       .  S
C1979      C1980   1.408       .  A
C1979      C2251   1.488       .  S
C1980      H1983   1.083       .  S
C1984      C1985   1.412       .  A
C1984      C1989   1.415       .  A
C1984      C2126   1.486       .  S
C1985      C1986   1.396       .  A
C1985      H1990   1.083       .  S
C1986      C1987   1.394       .  A
C1986      C2231   1.470       .  S
C1987      C1988   1.401       .  A
C1987      H1991   1.085       .  S
C1988      C1989   1.407       .  A
C1988      C2248   1.486   1_556  S
C1989      H1992   1.083   1_556  S
C1993      C1994   1.411       .  A
C1993      C1998   1.412       .  A
C1993      C2125   1.484       .  S
C1994      C1995   1.397       .  A
C1994      H1999   1.084       .  S
C1995      C1996   1.398       .  A
C1995      C2228   1.470       .  S
C1996      C1997   1.399       .  A
C1996      H2000   1.085       .  S
C1997      C1998   1.402       .  A
C1998      H2001   1.083   1_556  S
C2002      C2003   1.410       .  A
C2002      C2007   1.412       .  A
C2003      C2004   1.397       .  A
C2003      H2008   1.084       .  S
C2004      C2005   1.398       .  A
C2004      C2238   1.470       .  S
C2005      C2006   1.398       .  A
C2005      H2009   1.085       .  S
C2006      C2007   1.402       .  A
C2006      C2221   1.474       .  S
C2007      H2010   1.083       .  S
C2011      C2012   1.413       .  A
C2011      C2016   1.415       .  A
C2011      C2130   1.485       .  S
C2012      C2013   1.399       .  A
C2012      H2017   1.083       .  S
C2013      C2014   1.397       .  A
C2013      C2208   1.477       .  S
C2014      C2015   1.399       .  A
C2014      H2018   1.085       .  S
C2015      C2016   1.403       .  A
C2015      C2198   1.483       .  S
C2016      H2019   1.083       .  S
C2020      C2021   1.413       .  A
C2020      C2025   1.414       .  A
C2020      C2127   1.485       .  S
C2021      C2022   1.398       .  A
C2021      H2026   1.083       .  S
C2022      C2023   1.397       .  A
C2022      C2211   1.475       .  S
C2023      C2024   1.400       .  A
C2023      H2027   1.085       .  S
C2024      C2025   1.403       .  A
C2024      C2188   1.480       .  S
C2025      H2028   1.083       .  S
C2029      C2030   1.415       .  A
C2029      C2034   1.413       .  A
C2029      C2128   1.486       .  S
C2030      C2031   1.404       .  A
C2030      H2035   1.083       .  S
C2031      C2032   1.400       .  A
C2031      C2191   1.483       .  S
C2032      C2033   1.397       .  A
C2032      H2036   1.085       .  S
C2033      C2034   1.399       .  A
C2033      C2181   1.477       .  S
C2034      H2037   1.083       .  S
C2038      C2039   1.414       .  A
C2038      C2043   1.412       .  A
C2038      C2129   1.484       .  S
C2039      C2040   1.403       .  A
C2039      H2044   1.083       .  S
C2040      C2041   1.400       .  A
C2040      C2201   1.481       .  S
C2041      C2042   1.397       .  A
C2041      H2045   1.085       .  S
C2042      C2043   1.398       .  A
C2042      C2178   1.475       .  S
C2043      H2046   1.083       .  S
C2047      C2048   1.411       .  A
C2047      C2052   1.412       .  A
C2047      C2131   1.481       .  S
C2048      C2049   1.398       .  A
C2048      H2053   1.083       .  S
C2049      C2050   1.396       .  A
C2049      C2168   1.470       .  S
C2050      C2051   1.399       .  A
C2050      H2054   1.085       .  S
C2051      C2052   1.401       .  A
C2051      C2158   1.474       .  S
C2052      H2055   1.083       .  S
C2056      C2057   1.410       .  A
C2056      C2061   1.411       .  A
C2056      C2096   1.481       .  S
C2057      C2058   1.399       .  A
C2057      H2062   1.084       .  S
C2058      C2059   1.397       .  A
C2058      C2171   1.469       .  S
C2059      C2060   1.397       .  A
C2059      H2063   1.085       .  S
C2060      C2061   1.399       .  A
C2060      C2148   1.470       .  S
C2061      H2064   1.084       .  S
C2065      C2066   1.412       .  A
C2065      C2070   1.411       .  A
C2065      C2132   1.482       .  S
C2066      C2067   1.400       .  A
C2066      H2071   1.083       .  S
C2067      C2068   1.398       .  A
C2067      C2161   1.474       .  S
C2068      C2069   1.397       .  A
C2068      H2072   1.085       .  S
C2069      C2070   1.399       .  A
C2069      C2138   1.472       .  S
C2070      H2073   1.083       .  S
C2074      C2075   1.411       .  A
C2074      C2079   1.412       .  A
C2074      C2097   1.481       .  S
C2075      C2076   1.398       .  A
C2075      H2080   1.083       .  S
C2076      C2077   1.396       .  A
C2076      C2151   1.469       .  S
C2077      C2078   1.398       .  A
C2077      H2081   1.085       .  S
C2078      C2079   1.400       .  A
C2078      C2141   1.474       .  S
C2079      H2082   1.083       .  S
O2083     Zr2119   2.433       .  S
O2083      C2094   1.292       .  A
O2084     Zr2118   2.436       .  S
O2084      C2095   1.293       .  A
O2085     Zr2091   2.436   1_556  S
O2085      C2096   1.293       .  A
O2086      C2097   1.292       .  A
O2087     Zr2121   2.435       .  S
O2087      C2097   1.292       .  A
O2088     Zr2120   2.431       .  S
O2088      C2096   1.292       .  A
O2089      C2095   1.292       .  A
O2090     Zr2091   2.445       .  S
O2090      C2094   1.293       .  A
Zr2091     O2093   2.338   1_554  S
O2093     Zr2119   2.336   1_556  S
O2093     Zr2120   2.339       .  S
H2098      O2099   0.966       .  S
O2099     Zr2118   2.338   1_556  S
H2100      O2101   0.966       .  S
O2101     Zr2121   2.340       .  S
O2102      C2125   1.292       .  A
O2103      C2126   1.293       .  A
O2104      C2127   1.293       .  A
O2105      C2128   1.293       .  A
O2106     Zr2121   2.440       .  S
O2106      C2129   1.293       .  A
O2107     Zr2120   2.440       .  S
O2107      C2130   1.293       .  A
O2108     Zr2122   2.433       .  S
O2108      C2131   1.292       .  A
O2109      C2132   1.293       .  A
O2110      C2131   1.292       .  A
O2111      C2132   1.292       .  A
O2112     Zr2118   2.435   1_556  S
O2112      C2127   1.293       .  A
O2113     Zr2119   2.435   1_556  S
O2113      C2130   1.293       .  A
O2114      C2129   1.293       .  A
O2115      C2128   1.293       .  A
O2116      C2125   1.293       .  A
O2117     Zr2122   2.444       .  S
O2117      C2126   1.293       .  A
Zr2122     O2134   2.341       .  S
H2133      O2134   0.965       .  S
H2135      O2136   0.966       .  S
C2137      C2138   1.401       .  A
C2137      C2142   1.393       .  A
C2137      H2144   1.084       .  S
C2139      C2140   1.402       .  A
C2139      F2146   1.358       .  S
C2140      H2145   1.083       .  S
C2141      C2142   1.404       .  A
C2142      F2143   1.358       .  S
C2147      C2148   1.402       .  A
C2147      C2152   1.398       .  A
C2147      H2154   1.083       .  S
C2149      C2150   1.397       .  A
C2149      F2156   1.357       .  S
C2150      H2155   1.083       .  S
C2151      C2152   1.404       .  A
C2152      F2153   1.357       .  S
C2157      C2162   1.393       .  A
C2157      H2164   1.084       .  S
C2158      C2159   1.406       .  A
C2159      C2160   1.402       .  A
C2159      F2166   1.358       .  S
C2160      C2161   1.404       .  A
C2160      H2165   1.083       .  S
C2162      F2163   1.358       .  S
C2167      C2172   1.399       .  A
C2167      H2174   1.083       .  S
C2168      C2169   1.403       .  A
C2169      C2170   1.396       .  A
C2169      F2176   1.357       .  S
C2170      C2171   1.401       .  A
C2170      H2175   1.083       .  S
C2172      F2173   1.357       .  S
C2177      C2178   1.401       .  A
C2177      C2182   1.393       .  A
C2177      H2184   1.084       .  S
C2179      C2180   1.403       .  A
C2179      F2186   1.357       .  S
C2180      H2185   1.083       .  S
C2181      C2182   1.405       .  A
C2182      F2183   1.358       .  S
C2187      C2188   1.406   1_545  A
C2187      C2192   1.406       .  A
C2188      C2189   1.405       .  A
C2189      C2190   1.392       .  A
C2189      F2196   1.358       .  S
C2190      C2191   1.404       .  A
C2190      H2195   1.084       .  S
C2191      C2192   1.408   1_565  A
C2197      C2198   1.406       .  A
C2197      C2202   1.406       .  A
C2197      H2204   1.083       .  S
C2198      C2199   1.407   1_565  A
C2199      C2200   1.392       .  A
C2200      C2201   1.402   1_545  A
C2201      C2202   1.408       .  A
C2202      F2203   1.357       .  S
C2207      C2212   1.392       .  A
C2207      H2214   1.084       .  S
C2208      C2209   1.406       .  A
C2209      C2210   1.403       .  A
C2209      F2216   1.357       .  S
C2210      C2211   1.405       .  A
C2210      H2215   1.083       .  S
C2212      F2213   1.358       .  S
C2217      C2222   1.400       .  A
C2217      H2224   1.083       .  S
C2218      C2219   1.404       .  A
C2219      C2220   1.399       .  A
C2219      F2226   1.357       .  S
C2220      C2221   1.403       .  A
C2220      H2225   1.083       .  S
C2222      F2223   1.357       .  S
C2227      C2232   1.396       .  A
C2227      H2234   1.083       .  S
C2228      C2229   1.405       .  A
C2229      C2230   1.400       .  A
C2229      F2236   1.357       .  S
C2230      C2231   1.403       .  A
C2230      H2235   1.083       .  S
C2232      F2233   1.358       .  S
C2237      C2238   1.402       .  A
C2237      C2242   1.398       .  A
C2237      H2244   1.083       .  S
C2239      C2240   1.398       .  A
C2239      F2246   1.357       .  S
C2240      H2245   1.083       .  S
C2241      C2242   1.404       .  A
C2242      F2243   1.358       .  S
C2247      C2252   1.407       .  A
C2247      H2254   1.083       .  S
C2248      C2249   1.407       .  A
C2249      C2250   1.391       .  A
C2249      F2256   1.358       .  S
C2250      C2251   1.404       .  A
C2250      H2255   1.084       .  S
C2252      F2253   1.357       .  S
