geometry optimzed in LAMMPS
_audit_creation_date              2020-12-01 
_audit_creation_method            'lammps2cif' 
_symmetry_space_group_name_H-M    'P1' 
_symmetry_Int_Tables_number       1 
_symmetry_cell_setting            triclinic 
loop_ 
_symmetry_equiv_pos_as_xyz 
  x,y,z 
_cell_length_a                    38.55509138 
_cell_length_b                    37.64732544198751 
_cell_length_c                    45.759254944764905 
_cell_angle_alpha                 89.98840045325304 
_cell_angle_beta                  90.00100279263626 
_cell_angle_gamma                 89.99671206916628 
loop_ 
_atom_site_label 
_atom_site_type_symbol 
_atom_site_fract_x 
_atom_site_fract_y 
_atom_site_fract_z 
_atom_site_charge 
O1          O  0.17480706  0.18135240  0.20741886    -0.74700
O2          O  0.20642520  0.21204772  0.17356326    -0.53600
C3          C  0.18296050  0.18967466  0.18098564     0.79100
O4          O  0.17582788  0.32017891  0.30653859    -0.59300
O5          O  0.20607864  0.28807011  0.34040218    -0.52300
C6          C  0.18355142  0.31144840  0.33297948     0.71100
O7          O  0.17353216  0.31728015  0.20718747    -0.73800
O8          O  0.20606706  0.28746000  0.17342576    -0.54400
C9          C  0.18205804  0.30927127  0.18077874     0.77100
O10         O  0.17642509  0.17943367  0.30676570    -0.59000
O11         O  0.20709384  0.21120366  0.34055848    -0.52100
C12         C  0.18441507  0.18794822  0.33319209     0.73700
Zr13       Zr  0.19339627  0.19652975  0.25709047     2.54700
O14         O  0.13030640  0.19513463  0.25807577    -0.79500
O15         O  0.19659898  0.13193928  0.25669887    -0.92900
Zr16       Zr  0.19230603  0.30247742  0.25686979     2.64700
O17         O  0.12915465  0.30165874  0.25743875    -0.97900
O18         O  0.19399798  0.36707666  0.25525316    -0.80000
O19         O  0.19212700  0.24942250  0.22888969    -0.83300
O20         O  0.19192817  0.24957204  0.28503542    -2.18000
O21         O  0.31319185  0.18046559  0.30681062    -0.66700
O22         O  0.28216633  0.21196417  0.34055781    -0.51300
C23         C  0.30505341  0.18892353  0.33321017     0.72100
O24         O  0.31460472  0.31820364  0.20744034    -0.59600
O25         O  0.28297527  0.28743823  0.17363763    -0.51600
C26         C  0.30649364  0.30974946  0.18103265     0.73900
O27         O  0.31217444  0.32096179  0.30668372    -0.71000
O28         O  0.28166085  0.28895990  0.34045724    -0.49700
C29         C  0.30426089  0.31230493  0.33310156     0.75300
O30         O  0.31566822  0.18283445  0.20760470    -0.66300
O31         O  0.28298790  0.21230734  0.17372714    -0.53500
C32         C  0.30708030  0.19065291  0.18117454     0.73600
Zr33       Zr  0.29650371  0.19768491  0.25711996     2.77500
O34         O  0.35967961  0.19766338  0.25749254    -0.97100
O35         O  0.29342483  0.13314521  0.25555599    -0.77900
Zr36       Zr  0.29534385  0.30365270  0.25702176     2.70100
O37         O  0.35840001  0.30650166  0.25825786    -0.79200
O38         O  0.28990817  0.36800756  0.25478313    -0.98200
Zr39       Zr  0.24448165  0.24995080  0.20141652     2.21500
Zr40       Zr  0.24430099  0.25012201  0.31267097     2.11100
O41         O  0.29676567  0.25069777  0.28513070    -2.46900
O42         O  0.29671971  0.25063335  0.22902647    -0.78900
O43         O  0.24494122  0.19627704  0.28545245    -0.71100
O44         O  0.24389287  0.30392933  0.22859127    -2.32100
O45         O  0.24499574  0.19613019  0.22878962    -2.28300
O46         O  0.24377826  0.30392645  0.28534165    -0.72900
H47         H  0.17186898  0.24940758  0.29766442     0.79100
H48         H  0.24374750  0.32431302  0.21580977     0.80200
H49         H  0.31679038  0.25093109  0.29778600     0.82400
H50         H  0.24525992  0.17570052  0.21601915     0.80000
H51         H  0.21152303  0.37375132  0.27007904     0.43100
H52         H  0.27896465  0.37469813  0.27356369     0.42000
H53         H  0.36601592  0.28279324  0.25143081     0.41700
H54         H  0.36617044  0.21259247  0.27444264     0.39600
H55         H  0.27348705  0.12708735  0.26825059     0.42800
H56         H  0.20893801  0.12595954  0.23837564     0.37600
H57         H  0.12338824  0.22036453  0.25987123     0.43700
H58         H  0.12288603  0.28924132  0.27576711     0.40100
H59         H  0.36613086  0.17321398  0.26333305     0.45000
H60         H  0.17241366  0.12413374  0.25327418     0.43700
H61         H  0.12243322  0.32670095  0.26085131     0.43900
H62         H  0.31402242  0.37684007  0.25636020     0.44200
C63         C  0.36111124  0.36536861  0.39484135     0.87100
C64         C  0.38387929  0.34275464  0.41542291    -0.53100
C65         C  0.40467531  0.36264488  0.43323809     0.10100
C66         C  0.40049152  0.40310088  0.42859309     0.21000
C67         C  0.34067043  0.39067931  0.41493139    -0.53800
C68         C  0.36138717  0.41067457  0.43265188     0.10200
C69         C  0.38654214  0.38918323  0.37804129    -0.53400
C70         C  0.40722895  0.40897950  0.39570944     0.10700
H71         H  0.38413465  0.31391383  0.41543053     0.15200
H72         H  0.41742067  0.41939367  0.44297136     0.01000
H73         H  0.31256114  0.39243199  0.41527753     0.15500
H74         H  0.38754554  0.39092844  0.35435687     0.15300
C75         C  0.36172933  0.13545380  0.39473682     0.87100
C76         C  0.38704953  0.11155148  0.37789244    -0.53100
C77         C  0.40763730  0.09159433  0.39553818     0.10100
C78         C  0.40090423  0.09743650  0.42843390     0.21000
C79         C  0.34114740  0.11020587  0.41475937    -0.53800
C80         C  0.36175156  0.09007563  0.43246081     0.10200
C81         C  0.38458078  0.15789513  0.41536607    -0.53400
C82         C  0.40528116  0.13786310  0.43315746     0.10700
H83         H  0.38803466  0.10986119  0.35420477     0.15200
H84         H  0.41773578  0.08101551  0.44279962     0.01000
H85         H  0.31302683  0.10862614  0.41511269     0.15500
H86         H  0.38495615  0.18673436  0.41541718     0.15300
C87         C  0.12685643  0.36466329  0.39474866     0.87100
C88         C  0.14739828  0.38989840  0.41481193    -0.53100
C89         C  0.12675388  0.40994102  0.43254835     0.10100
C90         C  0.08762088  0.40252728  0.42852375     0.21000
C91         C  0.10405001  0.34212916  0.41537333    -0.53800
C92         C  0.08332756  0.36208336  0.43321229     0.10200
C93         C  0.10148952  0.38857067  0.37796577    -0.53400
C94         C  0.08088250  0.40844843  0.39563673     0.10700
H95         H  0.17551469  0.39154254  0.41515943     0.15200
H96         H  0.07076718  0.41889135  0.44291122     0.01000
H97         H  0.10372065  0.31329066  0.41538855     0.15500
H98         H  0.10049769  0.39033897  0.35428194     0.15300
C99         C  0.12753891  0.13459382  0.39478373     0.87100
C100        C  0.10200477  0.11091166  0.37795697    -0.53100
C101        C  0.08127673  0.09111485  0.39560828     0.10100
C102        C  0.08807545  0.09687655  0.42849162     0.21000
C103        C  0.10487949  0.15720140  0.41546015    -0.53800
C104        C  0.08403105  0.13732750  0.43325514     0.10200
C105        C  0.14792516  0.10914376  0.41477470    -0.53400
C106        C  0.12715953  0.08917097  0.43245938     0.10700
H107        H  0.10100816  0.10920703  0.35427194     0.15200
H108        H  0.07113289  0.08057849  0.44286080     0.01000
H109        H  0.10471408  0.18604117  0.41552228     0.15500
H110        H  0.17603180  0.10732615  0.41512962     0.15300
N111        N  0.49415608  0.44583429  0.38647943    -0.36000
N112        N  0.04668737  0.99986899  0.38306320    -0.56500
N113        N  0.49437406  0.05425877  0.38652292    -0.36000
N114        N  0.44185296  0.00018849  0.38315463    -0.56500
C115        C  0.02212503  0.42656701  0.37868182     0.27600
C116        C  0.46606437  0.42673895  0.37872109     0.27600
C117        C  0.02246068  0.07327905  0.37861375     0.27600
C118        C  0.46640057  0.07344602  0.37858172     0.27600
C119        C  0.06774084  0.47126056  0.38322872     0.36200
C120        C  0.06786342  0.02837495  0.38325375     0.36200
C121        C  0.42068115  0.47168193  0.38330893     0.36200
C122        C  0.42079206  0.02878709  0.38321804     0.36200
C123        C  0.01187131  0.39580888  0.36467493    -0.21300
C124        C  0.47611249  0.39592071  0.36469839    -0.21300
C125        C  0.01240577  0.10394772  0.36436562    -0.21200
C126        C  0.47664763  0.10405250  0.36434124    -0.21200
C127        C  0.10188712  0.48152016  0.38067435    -0.22300
C128        C  0.10196515  0.01796278  0.38069612    -0.22300
C129        C  0.38659122  0.48208411  0.38063085    -0.22300
C130        C  0.38666100  0.01852404  0.38057335    -0.22300
C131        C  0.05648229  0.43593251  0.38473920    -0.17700
C132        C  0.43177365  0.43630904  0.38482210    -0.17700
C133        C  0.43203610  0.06411190  0.38464098    -0.17700
C134        C  0.05676067  0.06375154  0.38471961    -0.17700
H135        H  0.02846158  0.37567082  0.35522818     0.15300
H136        H  0.45938548  0.37588814  0.35527306     0.15300
H137        H  0.02912893  0.12388950  0.35479935     0.15300
H138        H  0.46005307  0.12409179  0.35475050     0.15300
H139        H  0.12399912  0.46432378  0.37754001     0.13500
H140        H  0.12414846  0.03506528  0.37757429     0.13500
H141        H  0.36443125  0.46497483  0.37742482     0.13500
H142        H  0.36456610  0.03571477  0.37732388     0.13500
H143        H  0.49422860  0.46827268  0.39980463     0.26800
H144        H  0.49431453  0.03191984  0.39997323     0.26800
C145        C  0.36193055  0.36419761  0.11945029     0.87100
C146        C  0.34069152  0.38975618  0.10013914    -0.53100
C147        C  0.36084807  0.41064214  0.08262340     0.10100
C148        C  0.40006321  0.40360217  0.08603359     0.21000
C149        C  0.38463768  0.34261513  0.09813935    -0.53800
C150        C  0.40473521  0.36335772  0.08045101     0.10200
C151        C  0.38720519  0.38796536  0.13644162    -0.53400
C152        C  0.40714864  0.40872316  0.11893497     0.10700
H153        H  0.31255220  0.39096937  0.10008505     0.15200
H154        H  0.41649736  0.42058820  0.07178507     0.01000
H155        H  0.38536428  0.31379028  0.09755737     0.15500
H156        H  0.38868800  0.38891225  0.16013953     0.15300
C157        C  0.12579084  0.36342598  0.11941176     0.87100
C158        C  0.10051313  0.38727666  0.13635656    -0.53100
C159        C  0.08061902  0.40806154  0.11880214     0.10100
C160        C  0.08773521  0.40284917  0.08591158     0.21000
C161        C  0.10305274  0.34184820  0.09810832    -0.53800
C162        C  0.08298990  0.36259801  0.08038430     0.10200
C163        C  0.14705718  0.38891298  0.10008369    -0.53400
C164        C  0.12697187  0.40979192  0.08252613     0.10700
H165        H  0.09903735  0.38829957  0.16005076     0.15200
H166        H  0.07135755  0.41984478  0.07162048     0.01000
H167        H  0.10227046  0.31302514  0.09756526     0.15500
H168        H  0.17519825  0.39007339  0.10003893     0.15300
N169        N  0.44063824  0.35098003  0.00652024    -0.36000
N170        N  0.49381500  0.34802168  0.05078948    -0.56500
N171        N  0.04714474  0.35030525  0.00649080    -0.36000
N172        N  0.49395230  0.34503903  0.46218175    -0.56500
C173        C  0.42165265  0.34243242  0.03032904     0.27600
C174        C  0.42187851  0.34125486  0.48291610     0.27600
C175        C  0.06595898  0.34149207  0.03032677     0.27600
C176        C  0.06592204  0.34055330  0.48289605     0.27600
C177        C  0.46584561  0.34684903  0.06855373     0.36200
C178        C  0.02177949  0.34652807  0.06853924     0.36200
C179        C  0.46593617  0.34550393  0.44440274     0.36200
C180        C  0.02196313  0.34532722  0.44438713     0.36200
C181        C  0.39141518  0.32562179  0.02188207    -0.21300
C182        C  0.39153800  0.32491966  0.49171868    -0.21300
C183        C  0.09608258  0.32443743  0.02190727    -0.21200
C184        C  0.09607688  0.32387638  0.49173307    -0.21200
C185        C  0.47597915  0.34111090  0.09700621    -0.22300
C186        C  0.01160044  0.34092242  0.09699893    -0.22300
C187        C  0.47611043  0.34258404  0.41564724    -0.22300
C188        C  0.01176029  0.34248289  0.41563630    -0.22300
C189        C  0.43117202  0.34950297  0.05938451    -0.17700
C190        C  0.43122320  0.34782825  0.45375089    -0.17700
C191        C  0.05669380  0.34735566  0.45372601    -0.17700
C192        C  0.05648186  0.34876590  0.05936612    -0.17700
H193        H  0.37162247  0.31465848  0.03601682     0.15300
H194        H  0.37175898  0.31350681  0.47781223     0.15300
H195        H  0.11576230  0.31330235  0.03606619     0.15300
H196        H  0.11582747  0.31237235  0.47784791     0.15300
H197        H  0.45923332  0.33553279  0.11536113     0.13500
H198        H  0.02830097  0.33517832  0.11535008     0.13500
H199        H  0.45935808  0.33920243  0.39693512     0.13500
H200        H  0.02848270  0.33900128  0.39691659     0.13500
H201        H  0.46291657  0.36662988  0.00628041     0.26800
H202        H  0.02502443  0.36618918  0.00625486     0.26800
C203        C  0.12672016  0.13572822  0.11946584     0.87100
C204        C  0.14781285  0.11030017  0.09996652    -0.53100
C205        C  0.12755968  0.08962803  0.08238902     0.10100
C206        C  0.08837510  0.09669998  0.08590154     0.21000
C207        C  0.10398416  0.15755373  0.09829260    -0.53800
C208        C  0.08378912  0.13700127  0.08050618     0.10200
C209        C  0.10141735  0.11184172  0.13637337    -0.53400
C210        C  0.08136692  0.09125308  0.11878964     0.10700
H211        H  0.17594817  0.10897799  0.09986315     0.15200
H212        H  0.07188674  0.07986251  0.07158380     0.01000
H213        H  0.10336548  0.18638410  0.09783613     0.15500
H214        H  0.10002938  0.11067078  0.16006742     0.15300
N215        N  0.44112212  0.50002532  0.12717422    -0.36000
N216        N  0.49399867  0.44604575  0.13122537    -0.56500
N217        N  0.04733706  0.99973194  0.12709483    -0.36000
N218        N  0.49446818  0.05375194  0.13081182    -0.56500
C219        C  0.42081342  0.47130235  0.13115793     0.27600
C220        C  0.42102769  0.02894279  0.13094194     0.27600
C221        C  0.06741283  0.47080506  0.13096171     0.27600
C222        C  0.06767714  0.02849004  0.13090922     0.27600
C223        C  0.46599404  0.42573009  0.13652181     0.36200
C224        C  0.02189133  0.42554125  0.13643519     0.36200
C225        C  0.46655581  0.07418706  0.13614040     0.36200
C226        C  0.02246250  0.07404847  0.13621320     0.36200
C227        C  0.38759141  0.48196560  0.13818479    -0.21300
C228        C  0.38772935  0.01860193  0.13805181    -0.21300
C229        C  0.10073846  0.48117154  0.13793939    -0.21200
C230        C  0.10089996  0.01781676  0.13792798    -0.21200
C231        C  0.47598947  0.39325889  0.14770005    -0.22300
C232        C  0.01171544  0.39313849  0.14764572    -0.22300
C233        C  0.47670608  0.10651064  0.14749716    -0.22300
C234        C  0.01243239  0.10642482  0.14754038    -0.22300
C235        C  0.43183108  0.43578221  0.12995701    -0.17700
C236        C  0.43232892  0.06436451  0.12953502    -0.17700
C237        C  0.05665961  0.06405024  0.12968582    -0.17700
C238        C  0.05610474  0.43535241  0.12976080    -0.17700
H239        H  0.36612667  0.46503796  0.14430687     0.15300
H240        H  0.36639455  0.03575137  0.14406993     0.15300
H241        H  0.12207923  0.46403641  0.14398066     0.15300
H242        H  0.12238161  0.03474874  0.14398648     0.15300
H243        H  0.45925780  0.37213313  0.15530286     0.13500
H244        H  0.02833311  0.37189646  0.15520468     0.13500
H245        H  0.46007009  0.12766324  0.15518893     0.13500
H246        H  0.02914445  0.12749881  0.15526136     0.13500
H247        H  0.46599064  0.49990362  0.11875558     0.26800
H248        H  0.02243319  0.99980003  0.11875329     0.26800
N249        N  0.13903947  0.99965051  0.05235494    -0.36000
N250        N  0.14242969  0.05345554  0.00760140    -0.56500
N251        N  0.13733744  0.99953478  0.46283928    -0.36000
N252        N  0.14237444  0.44571287  0.00768422    -0.56500
C253        C  0.14712139  0.02851121  0.06853532     0.27600
C254        C  0.14697946  0.47078864  0.06859359     0.27600
C255        C  0.14702804  0.02831500  0.44720120     0.27600
C256        C  0.14691984  0.47069087  0.44724129     0.27600
C257        C  0.14271277  0.07512753  0.03109357     0.36200
C258        C  0.14198449  0.07507239  0.48406473     0.36200
C259        C  0.14242478  0.42410198  0.03122961     0.36200
C260        C  0.14171040  0.42403687  0.48418447     0.36200
C261        C  0.16152878  0.01798836  0.09479193    -0.21300
C262        C  0.16144035  0.48130835  0.09482949    -0.21300
C263        C  0.16435883  0.01777684  0.42224242    -0.21200
C264        C  0.16428409  0.48111451  0.42226521    -0.18700
C265        C  0.14568972  0.11005592  0.02246860    -0.22300
C266        C  0.14522670  0.11001367  0.49250413    -0.22300
C267        C  0.14507341  0.38912322  0.02267169    -0.22300
C268        C  0.14462908  0.38909334  0.49270304    -0.22300
C269        C  0.14095753  0.06395570  0.06031517    -0.17700
C270        C  0.14061425  0.43535601  0.06043657    -0.17700
C271        C  0.13986085  0.43534956  0.45503174    -0.17700
C272        C  0.14011337  0.06370189  0.45494547    -0.17700
H273        H  0.17138137  0.03501108  0.11193505     0.15300
H274        H  0.17121350  0.46428415  0.11200892     0.15300
H275        H  0.17604130  0.03476632  0.40590408     0.15300
H276        H  0.17589153  0.46404926  0.40594667     0.15300
H277        H  0.14959678  0.13277273  0.03649822     0.13500
H278        H  0.14887715  0.13264418  0.47832938     0.13500
H279        H  0.14869815  0.36639504  0.03675042     0.13500
H280        H  0.14805369  0.36639503  0.47857274     0.13500
H281        H  0.12462415  0.99965560  0.03312937     0.26800
H282        H  0.12134141  0.99957990  0.48120168     0.26800
N283        N  0.44140487  0.14951946  0.00646177    -0.36000
N284        N  0.49471403  0.15230423  0.05077493    -0.56500
N285        N  0.04795108  0.14941240  0.00654273    -0.36000
N286        N  0.49468546  0.15498891  0.46213753    -0.56500
C287        C  0.42251679  0.15824236  0.03028199     0.27600
C288        C  0.42265281  0.15926313  0.48284372     0.27600
C289        C  0.06688216  0.15811286  0.03035189     0.27600
C290        C  0.06673394  0.15900838  0.48290453     0.27600
C291        C  0.46673137  0.15352865  0.06852487     0.36200
C292        C  0.02267127  0.15345375  0.06856627     0.36200
C293        C  0.46667864  0.15451539  0.44433660     0.36200
C294        C  0.02271901  0.15434541  0.44437386     0.36200
C295        C  0.39234793  0.17518796  0.02182701    -0.21300
C296        C  0.39241432  0.17580176  0.49165309    -0.21300
C297        C  0.09709842  0.17493791  0.02186090    -0.21200
C298        C  0.09702810  0.17545995  0.49168340    -0.21200
C299        C  0.47687896  0.15894308  0.09701383    -0.22300
C300        C  0.01249252  0.15888739  0.09704116    -0.22300
C301        C  0.47690528  0.15706730  0.41556891    -0.22300
C302        C  0.01255667  0.15695403  0.41559305    -0.22300
C303        C  0.43203259  0.15115330  0.05935366    -0.17700
C304        C  0.43193282  0.15251701  0.45367531    -0.17700
C305        C  0.05744236  0.15217306  0.45374821    -0.17700
C306        C  0.05738031  0.15102878  0.05943409    -0.17700
H307        H  0.37263834  0.18629450  0.03596701     0.15300
H308        H  0.37267098  0.18729618  0.47775026     0.15300
H309        H  0.11687803  0.18596206  0.03597464     0.15300
H310        H  0.11683152  0.18679475  0.47775525     0.15300
H311        H  0.46015343  0.16446309  0.11539027     0.13500
H312        H  0.02920289  0.16435197  0.11544009     0.13500
H313        H  0.46019320  0.16036763  0.39682036     0.13500
H314        H  0.02932290  0.16014938  0.39686699     0.13500
H315        H  0.46360313  0.13374865  0.00624795     0.26800
H316        H  0.02571298  0.13370354  0.00633948     0.26800
C317        C  0.36285922  0.13653374  0.11955086     0.87100
C318        C  0.38570028  0.15813105  0.09832424    -0.53100
C319        C  0.40556117  0.13737670  0.08043943     0.10100
C320        C  0.40060193  0.09713363  0.08581223     0.21000
C321        C  0.34138756  0.11135732  0.10011396    -0.53800
C322        C  0.36132338  0.09050576  0.08241544     0.10200
C323        C  0.38799034  0.11239252  0.13634903    -0.53400
C324        C  0.40774705  0.09164927  0.11868136     0.10700
H325        H  0.38665630  0.18695188  0.09791704     0.15200
H326        H  0.41685394  0.08013148  0.07143277     0.01000
H327        H  0.31324097  0.11033092  0.10014255     0.15500
H328        H  0.38953298  0.11121427  0.16003789     0.15300
N329        N  0.34928095  0.50064109  0.05249355    -0.36000
N330        N  0.34590722  0.44673181  0.00776575    -0.56500
N331        N  0.35109977  0.50047675  0.46284599    -0.36000
N332        N  0.34594335  0.05444378  0.00763325    -0.56500
C333        C  0.34129314  0.47181856  0.06876282     0.27600
C334        C  0.34133052  0.02954331  0.06866408     0.27600
C335        C  0.34152774  0.47164221  0.44722333     0.27600
C336        C  0.34159668  0.02929086  0.44716357     0.27600
C337        C  0.34551050  0.42513746  0.03133026     0.36200
C338        C  0.34637215  0.42502764  0.48426747     0.36200
C339        C  0.34567866  0.07611689  0.03114118     0.36200
C340        C  0.34651759  0.07605257  0.48407610     0.36200
C341        C  0.32696670  0.48241377  0.09503397    -0.21300
C342        C  0.32699599  0.01909648  0.09497315    -0.21300
C343        C  0.32432560  0.48212018  0.42217702    -0.21200
C344        C  0.32437648  0.01879215  0.42213505    -0.21200
C345        C  0.34246822  0.39019548  0.02277513    -0.22300
C346        C  0.34300933  0.39013518  0.49280833    -0.22300
C347        C  0.34280262  0.11105113  0.02249713    -0.22300
C348        C  0.34333761  0.11100458  0.49252077    -0.22300
C349        C  0.34735804  0.43634192  0.06055992    -0.17700
C350        C  0.34754705  0.06495797  0.06038866    -0.17700
C351        C  0.34857352  0.06466936  0.45493927    -0.17700
C352        C  0.34838911  0.43626146  0.45508674    -0.17700
H353        H  0.31715705  0.46543872  0.11223165     0.15300
H354        H  0.31723720  0.03617051  0.11212187     0.15300
H355        H  0.31272185  0.46508713  0.40583337     0.15300
H356        H  0.31282670  0.03581312  0.40574895     0.15300
H357        H  0.33854227  0.36751592  0.03685124     0.13500
H358        H  0.33936256  0.36745678  0.47869469     0.13500
H359        H  0.33901734  0.13379853  0.03652043     0.13500
H360        H  0.33986331  0.13366424  0.47834358     0.13500
H361        H  0.36360813  0.50059536  0.03322364     0.26800
H362        H  0.36697453  0.50049004  0.48128132     0.26800
C363        C  0.33916446  0.34480275  0.37488289    -0.12600
C364        C  0.32258711  0.32977220  0.35628329    -0.14200
C365        C  0.33988473  0.15622075  0.37487214    -0.12600
C366        C  0.32335811  0.17144786  0.35636626    -0.14200
C367        C  0.16518468  0.32895301  0.35611915    -0.12600
C368        C  0.14870342  0.34403167  0.37475453    -0.14200
C369        C  0.32502805  0.32688542  0.15787521    -0.12600
C370        C  0.34091922  0.34253833  0.13924358    -0.14200
C371        C  0.14954245  0.15519465  0.37488017    -0.12600
C372        C  0.16612530  0.17036127  0.35634962    -0.14200
C373        C  0.16327811  0.32625897  0.15763358    -0.12600
C374        C  0.14695674  0.34180123  0.13917326    -0.14200
C375        C  0.32582093  0.17360835  0.15807749    -0.12600
C376        C  0.34193030  0.15810818  0.13948594    -0.14200
C377        C  0.14803607  0.15709444  0.13930732    -0.12600
C378        C  0.16432203  0.17250753  0.15785958    -0.14200
O379        O  0.17480714  0.18135243  0.70741879    -0.74700
O380        O  0.20642534  0.21204760  0.67356314    -0.53600
C381        C  0.18296060  0.18967462  0.68098556     0.79100
O382        O  0.17582773  0.32017883  0.80653856    -0.59300
O383        O  0.20607863  0.28807010  0.84040211    -0.52300
C384        C  0.18355136  0.31144835  0.83297943     0.71100
O385        O  0.17353214  0.31728015  0.70718749    -0.73800
O386        O  0.20606714  0.28746013  0.67342576    -0.54400
C387        C  0.18205807  0.30927134  0.68077878     0.77100
O388        O  0.17642531  0.17943362  0.80676573    -0.59000
O389        O  0.20709380  0.21120381  0.84055855    -0.52100
C390        C  0.18441514  0.18794829  0.83319214     0.73700
Zr391      Zr  0.19339634  0.19652970  0.75709043     2.54700
O392        O  0.13030651  0.19513477  0.75807583    -0.79500
O393        O  0.19659887  0.13193922  0.75669873    -0.92900
Zr394      Zr  0.19230608  0.30247741  0.75686978     2.64700
O395        O  0.12915468  0.30165891  0.75743873    -0.97900
O396        O  0.19399809  0.36707665  0.75525329    -0.80000
O397        O  0.19212705  0.24942248  0.72888966    -0.83300
O398        O  0.19192829  0.24957202  0.78503536    -2.18000
O399        O  0.31319186  0.18046553  0.80681056    -0.66700
O400        O  0.28216637  0.21196410  0.84055779    -0.51300
C401        C  0.30505344  0.18892346  0.83321012     0.72100
O402        O  0.31460449  0.31820382  0.70744036    -0.59600
O403        O  0.28297530  0.28743819  0.67363760    -0.51600
C404        C  0.30649352  0.30974954  0.68103265     0.73900
O405        O  0.31217459  0.32096183  0.80668367    -0.71000
O406        O  0.28166085  0.28896003  0.84045716    -0.49700
C407        C  0.30426097  0.31230500  0.83310151     0.75300
O408        O  0.31566822  0.18283439  0.70760474    -0.66300
O409        O  0.28298807  0.21230734  0.67372710    -0.53500
C410        C  0.30708041  0.19065288  0.68117456     0.73600
Zr411      Zr  0.29650370  0.19768486  0.75711996     2.77500
O412        O  0.35967962  0.19766329  0.75749245    -0.97100
O413        O  0.29342472  0.13314515  0.75555592    -0.77900
Zr414      Zr  0.29534383  0.30365269  0.75702177     2.70100
O415        O  0.35840002  0.30650201  0.75825767    -0.79200
O416        O  0.28990788  0.36800750  0.75478337    -0.98200
Zr417      Zr  0.24448169  0.24995075  0.70141645     2.21500
Zr418      Zr  0.24430104  0.25012198  0.81267098     2.11100
O419        O  0.29676572  0.25069773  0.78513069    -2.46900
O420        O  0.29671970  0.25063332  0.72902649    -0.78900
O421        O  0.24494123  0.19627697  0.78545248    -0.71100
O422        O  0.24389289  0.30392931  0.72859120    -2.32100
O423        O  0.24499578  0.19613016  0.72878959    -2.28300
O424        O  0.24377827  0.30392643  0.78534169    -0.72900
H425        H  0.17186924  0.24940762  0.79766427     0.79100
H426        H  0.24374751  0.32431295  0.71580971     0.80200
H427        H  0.31679037  0.25093105  0.79778588     0.82400
H428        H  0.24525996  0.17570045  0.71601917     0.80000
H429        H  0.21152296  0.37375129  0.77007930     0.43100
H430        H  0.27896330  0.37469779  0.77356355     0.42000
H431        H  0.36601603  0.28279196  0.75143459     0.41700
H432        H  0.36617058  0.21259135  0.77444301     0.39600
H433        H  0.27348586  0.12708737  0.76824929     0.42800
H434        H  0.20893719  0.12595941  0.73837522     0.37600
H435        H  0.12338851  0.22036461  0.75987239     0.43700
H436        H  0.12288608  0.28924116  0.77576707     0.40100
H437        H  0.36613081  0.17321343  0.76333203     0.45000
H438        H  0.17241336  0.12413375  0.75327462     0.43700
H439        H  0.12243326  0.32670095  0.76085153     0.43900
H440        H  0.31402199  0.37684014  0.75636149     0.44200
C441        C  0.36111125  0.36536865  0.89484133     0.87100
C442        C  0.38387930  0.34275472  0.91542289    -0.53100
C443        C  0.40467536  0.36264492  0.93323803     0.10100
C444        C  0.40049156  0.40310089  0.92859299     0.21000
C445        C  0.34067047  0.39067936  0.91493140    -0.53800
C446        C  0.36138723  0.41067459  0.93265185     0.10200
C447        C  0.38654215  0.38918324  0.87804125    -0.53400
C448        C  0.40722898  0.40897952  0.89570935     0.10700
H449        H  0.38413459  0.31391392  0.91543056     0.15200
H450        H  0.41742075  0.41939367  0.94297124     0.01000
H451        H  0.31256119  0.39243206  0.91527765     0.15500
H452        H  0.38754553  0.39092841  0.85435683     0.15300
C453        C  0.36172931  0.13545377  0.89473682     0.87100
C454        C  0.38704946  0.11155141  0.87789245    -0.53100
C455        C  0.40763729  0.09159433  0.89553821     0.10100
C456        C  0.40090422  0.09743652  0.92843392     0.21000
C457        C  0.34114738  0.11020591  0.91475944    -0.53800
C458        C  0.36175155  0.09007563  0.93246086     0.10200
C459        C  0.38458080  0.15789512  0.91536601    -0.53400
C460        C  0.40528116  0.13786312  0.93315743     0.10700
H461        H  0.38803452  0.10986104  0.85420478     0.15200
H462        H  0.41773578  0.08101556  0.94279966     0.01000
H463        H  0.31302680  0.10862625  0.91511279     0.15500
H464        H  0.38495620  0.18673435  0.91541705     0.15300
C465        C  0.12685643  0.36466322  0.89474866     0.87100
C466        C  0.14739829  0.38989839  0.91481191    -0.53100
C467        C  0.12675390  0.40994098  0.93254834     0.10100
C468        C  0.08762089  0.40252727  0.92852374     0.21000
C469        C  0.10405002  0.34212903  0.91537335    -0.53800
C470        C  0.08332757  0.36208331  0.93321228     0.10200
C471        C  0.10148953  0.38857062  0.87796575    -0.53400
C472        C  0.08088251  0.40844839  0.89563669     0.10700
H473        H  0.17551469  0.39154254  0.91515937     0.15200
H474        H  0.07076719  0.41889135  0.94291121     0.01000
H475        H  0.10372063  0.31329054  0.91538858     0.15500
H476        H  0.10049771  0.39033889  0.85428192     0.15300
C477        C  0.12753898  0.13459384  0.89478374     0.87100
C478        C  0.10200488  0.11091165  0.87795698    -0.53100
C479        C  0.08127677  0.09111491  0.89560827     0.10100
C480        C  0.08807545  0.09687663  0.92849162     0.21000
C481        C  0.10487950  0.15720146  0.91546010    -0.53800
C482        C  0.08403106  0.13732757  0.93325509     0.10200
C483        C  0.14792519  0.10914380  0.91477476    -0.53400
C484        C  0.12715953  0.08917102  0.93245942     0.10700
H485        H  0.10100838  0.10920695  0.85427195     0.15200
H486        H  0.07113285  0.08057860  0.94286078     0.01000
H487        H  0.10471401  0.18604123  0.91552216     0.15500
H488        H  0.17603182  0.10732611  0.91512968     0.15300
N489        N  0.49415608  0.44583432  0.88647926    -0.36000
N490        N  0.04668739  0.99986899  0.88306323    -0.56500
N491        N  0.49437408  0.05425857  0.88652298    -0.36000
N492        N  0.44185297  0.00018848  0.88315471    -0.56500
C493        C  0.02212504  0.42656699  0.87868177     0.27600
C494        C  0.46606439  0.42673901  0.87872093     0.27600
C495        C  0.02246071  0.07327911  0.87861371     0.27600
C496        C  0.46640060  0.07344601  0.87858175     0.27600
C497        C  0.06774086  0.47126051  0.88322861     0.36200
C498        C  0.06786341  0.02837499  0.88325378     0.36200
C499        C  0.42068118  0.47168196  0.88330881     0.36200
C500        C  0.42079208  0.02878710  0.88321806     0.36200
C501        C  0.01187129  0.39580891  0.86467490    -0.21300
C502        C  0.47611252  0.39592076  0.86469829    -0.21300
C503        C  0.01240579  0.10394783  0.86436558    -0.21200
C504        C  0.47664765  0.10405251  0.86434128    -0.21200
C505        C  0.10188714  0.48152014  0.88067420    -0.22300
C506        C  0.10196508  0.01796277  0.88069603    -0.22300
C507        C  0.38659129  0.48208416  0.88063085    -0.22300
C508        C  0.38666104  0.01852404  0.88057329    -0.22300
C509        C  0.05648231  0.43593247  0.88473913    -0.17700
C510        C  0.43177366  0.43630907  0.88482195    -0.17700
C511        C  0.43203612  0.06411189  0.88464103    -0.17700
C512        C  0.05676069  0.06375159  0.88471962    -0.17700
H513        H  0.02846153  0.37567080  0.85522817     0.15300
H514        H  0.45938554  0.37588816  0.85527296     0.15300
H515        H  0.02912893  0.12388966  0.85479931     0.15300
H516        H  0.46005306  0.12409182  0.85475057     0.15300
H517        H  0.12399913  0.46432375  0.87753985     0.13500
H518        H  0.12414839  0.03506528  0.87757420     0.13500
H519        H  0.36443130  0.46497488  0.87742490     0.13500
H520        H  0.36456614  0.03571475  0.87732375     0.13500
H521        H  0.49422859  0.46827275  0.89980441     0.26800
H522        H  0.49431456  0.03191973  0.89997324     0.26800
C523        C  0.36193057  0.36419763  0.61945031     0.87100
C524        C  0.34069153  0.38975613  0.60013917    -0.53100
C525        C  0.36084807  0.41064210  0.58262340     0.10100
C526        C  0.40006325  0.40360217  0.58603357     0.21000
C527        C  0.38463771  0.34261520  0.59813942    -0.53800
C528        C  0.40473526  0.36335772  0.58045105     0.10200
C529        C  0.38720519  0.38796541  0.63644155    -0.53400
C530        C  0.40714867  0.40872321  0.61893493     0.10700
H531        H  0.31255221  0.39096931  0.60008510     0.15200
H532        H  0.41649738  0.42058818  0.57178503     0.01000
H533        H  0.38536430  0.31379033  0.59755748     0.15500
H534        H  0.38868796  0.38891238  0.66013946     0.15300
C535        C  0.12579089  0.36342598  0.61941177     0.87100
C536        C  0.10051320  0.38727666  0.63635649    -0.53100
C537        C  0.08061904  0.40806150  0.61880213     0.10100
C538        C  0.08773522  0.40284913  0.58591160     0.21000
C539        C  0.10305277  0.34184816  0.59810837    -0.53800
C540        C  0.08298992  0.36259796  0.58038435     0.10200
C541        C  0.14705722  0.38891296  0.60008371    -0.53400
C542        C  0.12697189  0.40979190  0.58252615     0.10700
H543        H  0.09903748  0.38829961  0.66005070     0.15200
H544        H  0.07135755  0.41984472  0.57162049     0.01000
H545        H  0.10227048  0.31302510  0.59756535     0.15500
H546        H  0.17519828  0.39007336  0.60003898     0.15300
N547        N  0.44063826  0.35098000  0.50652030    -0.36000
N548        N  0.49381505  0.34802161  0.55078953    -0.56500
N549        N  0.04714495  0.35030524  0.50649086    -0.36000
N550        N  0.49395230  0.34503901  0.96218170    -0.56500
C551        C  0.42165270  0.34243236  0.53032910     0.27600
C552        C  0.42187851  0.34125481  0.98291604     0.27600
C553        C  0.06595902  0.34149205  0.53032684     0.27600
C554        C  0.06592198  0.34055328  0.98289601     0.27600
C555        C  0.46584568  0.34684898  0.56855377     0.36200
C556        C  0.02177950  0.34652807  0.56853929     0.36200
C557        C  0.46593618  0.34550405  0.94440267     0.36200
C558        C  0.02196311  0.34532716  0.94438712     0.36200
C559        C  0.39141521  0.32562179  0.52188214    -0.21300
C560        C  0.39153798  0.32491959  0.99171859    -0.21300
C561        C  0.09608257  0.32443733  0.52190734    -0.21200
C562        C  0.09607688  0.32387651  0.99173303    -0.21200
C563        C  0.47597927  0.34111095  0.59700621    -0.22300
C564        C  0.01160042  0.34092250  0.59699900    -0.22300
C565        C  0.47611043  0.34258422  0.91564718    -0.22300
C566        C  0.01176022  0.34248291  0.91563636    -0.22300
C567        C  0.43117206  0.34950289  0.55938457    -0.17700
C568        C  0.43122322  0.34782828  0.95375082    -0.17700
C569        C  0.05669377  0.34735564  0.95372598    -0.17700
C570        C  0.05648189  0.34876586  0.55936619    -0.17700
H571        H  0.37162249  0.31465844  0.53601686     0.15300
H572        H  0.37175897  0.31350671  0.97781213     0.15300
H573        H  0.11576225  0.31330223  0.53606628     0.15300
H574        H  0.11582752  0.31237257  0.97784784     0.15300
H575        H  0.45923349  0.33553283  0.61536118     0.13500
H576        H  0.02830098  0.33517852  0.61535014     0.13500
H577        H  0.45935814  0.33920265  0.89693501     0.13500
H578        H  0.02848267  0.33900125  0.89691666     0.13500
H579        H  0.46291661  0.36662981  0.50628053     0.26800
H580        H  0.02502459  0.36618930  0.50625495     0.26800
C581        C  0.12672014  0.13572826  0.61946585     0.87100
C582        C  0.14781279  0.11030016  0.59996655    -0.53100
C583        C  0.12755963  0.08962803  0.58238905     0.10100
C584        C  0.08837507  0.09669998  0.58590160     0.21000
C585        C  0.10398418  0.15755373  0.59829257    -0.53800
C586        C  0.08378911  0.13700124  0.58050621     0.10200
C587        C  0.10141731  0.11184183  0.63637342    -0.53400
C588        C  0.08136691  0.09125315  0.61878971     0.10700
H589        H  0.17594811  0.10897795  0.59986316     0.15200
H590        H  0.07188669  0.07986248  0.57158391     0.01000
H591        H  0.10336553  0.18638409  0.59783603     0.15500
H592        H  0.10002931  0.11067096  0.66006747     0.15300
N593        N  0.44112211  0.50002537  0.62717427    -0.36000
N594        N  0.49399873  0.44604578  0.63122542    -0.56500
N595        N  0.04733706  0.99973203  0.62709489    -0.36000
N596        N  0.49446821  0.05375190  0.63081185    -0.56500
C597        C  0.42081345  0.47130239  0.63115794     0.27600
C598        C  0.42102770  0.02894275  0.63094198     0.27600
C599        C  0.06741291  0.47080500  0.63096173     0.27600
C600        C  0.06767717  0.02849011  0.63090929     0.27600
C601        C  0.46599407  0.42573015  0.63652189     0.36200
C602        C  0.02189136  0.42554121  0.63643519     0.36200
C603        C  0.46655583  0.07418704  0.63614030     0.36200
C604        C  0.02246250  0.07404843  0.63621327     0.36200
C605        C  0.38759136  0.48196560  0.63818476    -0.21300
C606        C  0.38772938  0.01860190  0.63805192    -0.21300
C607        C  0.10073860  0.48117142  0.63793937    -0.21200
C608        C  0.10089997  0.01781688  0.63792806    -0.21200
C609        C  0.47598945  0.39325896  0.64770015    -0.22300
C610        C  0.01171547  0.39313849  0.64764580    -0.22300
C611        C  0.47670607  0.10651063  0.64749704    -0.22300
C612        C  0.01243235  0.10642473  0.64754043    -0.22300
C613        C  0.43183111  0.43578226  0.62995702    -0.17700
C614        C  0.43232894  0.06436446  0.62953496    -0.17700
C615        C  0.05665962  0.06405029  0.62968591    -0.17700
C616        C  0.05610476  0.43535237  0.62976083    -0.17700
H617        H  0.36612659  0.46503799  0.64430680     0.15300
H618        H  0.36639455  0.03575134  0.64406998     0.15300
H619        H  0.12207940  0.46403628  0.64398055     0.15300
H620        H  0.12238162  0.03474886  0.64398660     0.15300
H621        H  0.45925774  0.37213324  0.65530296     0.13500
H622        H  0.02833307  0.37189644  0.65520482     0.13500
H623        H  0.46007005  0.12766324  0.65518876     0.13500
H624        H  0.02914439  0.12749873  0.65526142     0.13500
H625        H  0.46599074  0.49990371  0.61875561     0.26800
H626        H  0.02243321  0.99980013  0.61875335     0.26800
N627        N  0.13903943  0.99965049  0.55235496    -0.36000
N628        N  0.14242974  0.05345558  0.50760137    -0.56500
N629        N  0.13733742  0.99953480  0.96283927    -0.36000
N630        N  0.14237430  0.44571290  0.50768423    -0.56500
C631        C  0.14712125  0.02851120  0.56853537     0.27600
C632        C  0.14697941  0.47078865  0.56859361     0.27600
C633        C  0.14702806  0.02831503  0.94720119     0.27600
C634        C  0.14691985  0.47069083  0.94724130     0.27600
C635        C  0.14271277  0.07512759  0.53109357     0.36200
C636        C  0.14198433  0.07507237  0.98406477     0.36200
C637        C  0.14242468  0.42410197  0.53122962     0.36200
C638        C  0.14171046  0.42403684  0.98418446     0.36200
C639        C  0.16152859  0.01798838  0.59479199    -0.21300
C640        C  0.16144039  0.48130836  0.59482948    -0.21300
C641        C  0.16435885  0.01777687  0.92224240    -0.21200
C642        C  0.16428405  0.48111449  0.92226521    -0.18700
C643        C  0.14568978  0.11005600  0.52246860    -0.22300
C644        C  0.14522652  0.11001367  0.99250412    -0.22300
C645        C  0.14507328  0.38912313  0.52267174    -0.22300
C646        C  0.14462915  0.38909337  0.99270305    -0.22300
C647        C  0.14095746  0.06395571  0.56031517    -0.17700
C648        C  0.14061424  0.43535602  0.56043658    -0.17700
C649        C  0.13986088  0.43534951  0.95503175    -0.17700
C650        C  0.14011333  0.06370189  0.95494549    -0.17700
H651        H  0.17138113  0.03501105  0.61193516     0.15300
H652        H  0.17121364  0.46428415  0.61200883     0.15300
H653        H  0.17604134  0.03476634  0.90590406     0.15300
H654        H  0.17589144  0.46404925  0.90594665     0.15300
H655        H  0.14959673  0.13277284  0.53649819     0.13500
H656        H  0.14887700  0.13264419  0.97832937     0.13500
H657        H  0.14869794  0.36639499  0.53675051     0.13500
H658        H  0.14805379  0.36639500  0.97857282     0.13500
H659        H  0.12462419  0.99965553  0.53312934     0.26800
H660        H  0.12134135  0.99957995  0.98120164     0.26800
N661        N  0.44140487  0.14951944  0.50646185    -0.36000
N662        N  0.49471405  0.15230431  0.55077499    -0.56500
N663        N  0.04795111  0.14941237  0.50654279    -0.36000
N664        N  0.49468542  0.15498884  0.96213749    -0.56500
C665        C  0.42251679  0.15824236  0.53028206     0.27600
C666        C  0.42265280  0.15926315  0.98284366     0.27600
C667        C  0.06688218  0.15811287  0.53035195     0.27600
C668        C  0.06673392  0.15900835  0.98290448     0.27600
C669        C  0.46673140  0.15352874  0.56852492     0.36200
C670        C  0.02267126  0.15345368  0.56856627     0.36200
C671        C  0.46667861  0.15451541  0.94433658     0.36200
C672        C  0.02271900  0.15434541  0.94437383     0.36200
C673        C  0.39234793  0.17518795  0.52182709    -0.21300
C674        C  0.39241431  0.17580175  0.99165301    -0.21300
C675        C  0.09709840  0.17493802  0.52186097    -0.21200
C676        C  0.09702807  0.17545985  0.99168335    -0.21200
C677        C  0.47687901  0.15894324  0.59701384    -0.22300
C678        C  0.01249246  0.15888733  0.59704117    -0.22300
C679        C  0.47690525  0.15706744  0.91556891    -0.22300
C680        C  0.01255671  0.15695418  0.91559305    -0.22300
C681        C  0.43203261  0.15115337  0.55935373    -0.17700
C682        C  0.43193281  0.15251705  0.95367526    -0.17700
C683        C  0.05744235  0.15217309  0.95374816    -0.17700
C684        C  0.05738031  0.15102875  0.55943413    -0.17700
H685        H  0.37263836  0.18629447  0.53596712     0.15300
H686        H  0.37267098  0.18729613  0.97775014     0.15300
H687        H  0.11687794  0.18596221  0.53597475     0.15300
H688        H  0.11683149  0.18679464  0.97775519     0.15300
H689        H  0.46015347  0.16446333  0.61539027     0.13500
H690        H  0.02920287  0.16435191  0.61544008     0.13500
H691        H  0.46019321  0.16036783  0.89682034     0.13500
H692        H  0.02932292  0.16014959  0.89686698     0.13500
H693        H  0.46360313  0.13374864  0.50624805     0.26800
H694        H  0.02571304  0.13370345  0.50633955     0.26800
C695        C  0.36285925  0.13653375  0.61955087     0.87100
C696        C  0.38570031  0.15813112  0.59832430    -0.53100
C697        C  0.40556119  0.13737677  0.58043949     0.10100
C698        C  0.40060193  0.09713366  0.58581224     0.21000
C699        C  0.34138758  0.11135733  0.60011396    -0.53800
C700        C  0.36132339  0.09050577  0.58241544     0.10200
C701        C  0.38799034  0.11239250  0.63634903    -0.53400
C702        C  0.40774704  0.09164924  0.61868135     0.10700
H703        H  0.38665635  0.18695194  0.59791713     0.15200
H704        H  0.41685397  0.08013154  0.57143278     0.01000
H705        H  0.31324098  0.11033093  0.60014257     0.15500
H706        H  0.38953296  0.11121424  0.66003789     0.15300
N707        N  0.34928096  0.50064110  0.55249357    -0.36000
N708        N  0.34590719  0.44673182  0.50776577    -0.56500
N709        N  0.35109994  0.50047673  0.96284610    -0.36000
N710        N  0.34594320  0.05444381  0.50763321    -0.56500
C711        C  0.34129309  0.47181856  0.56876281     0.27600
C712        C  0.34133054  0.02954332  0.56866408     0.27600
C713        C  0.34152775  0.47164218  0.94722333     0.27600
C714        C  0.34159662  0.02929084  0.94716360     0.27600
C715        C  0.34551036  0.42513749  0.53133026     0.36200
C716        C  0.34637216  0.42502764  0.98426747     0.36200
C717        C  0.34567862  0.07611692  0.53114115     0.36200
C718        C  0.34651765  0.07605253  0.98407613     0.36200
C719        C  0.32696663  0.48241378  0.59503391    -0.21300
C720        C  0.32699604  0.01909651  0.59497323    -0.21300
C721        C  0.32432552  0.48212010  0.92217702    -0.21200
C722        C  0.32437644  0.01879217  0.92213499    -0.21200
C723        C  0.34246806  0.39019560  0.52277503    -0.22300
C724        C  0.34300940  0.39013515  0.99280837    -0.22300
C725        C  0.34280264  0.11105113  0.52249714    -0.22300
C726        C  0.34333760  0.11100458  0.99252075    -0.22300
C727        C  0.34735799  0.43634189  0.56055993    -0.17700
C728        C  0.34754707  0.06495797  0.56038863    -0.17700
C729        C  0.34857354  0.06466931  0.95493932    -0.17700
C730        C  0.34838916  0.43626146  0.95508674    -0.17700
H731        H  0.31715695  0.46543872  0.61223155     0.15300
H732        H  0.31723723  0.03617058  0.61212192     0.15300
H733        H  0.31272184  0.46508702  0.90583335     0.15300
H734        H  0.31282675  0.03581317  0.90574887     0.15300
H735        H  0.33854209  0.36751598  0.53685108     0.13500
H736        H  0.33936261  0.36745680  0.97869466     0.13500
H737        H  0.33901739  0.13379852  0.53652046     0.13500
H738        H  0.33986328  0.13366420  0.97834354     0.13500
H739        H  0.36360817  0.50059541  0.53322366     0.26800
H740        H  0.36697474  0.50049002  0.98128131     0.26800
C741        C  0.33916449  0.34480276  0.87488289    -0.12600
C742        C  0.32258717  0.32977222  0.85628326    -0.14200
C743        C  0.33988472  0.15622071  0.87487211    -0.12600
C744        C  0.32335815  0.17144778  0.85636619    -0.14200
C745        C  0.16518467  0.32895295  0.85611914    -0.12600
C746        C  0.14870341  0.34403163  0.87475452    -0.14200
C747        C  0.32502798  0.32688550  0.65787524    -0.12600
C748        C  0.34091923  0.34253835  0.63924363    -0.14200
C749        C  0.14954252  0.15519469  0.87488020    -0.12600
C750        C  0.16612532  0.17036136  0.85634965    -0.14200
C751        C  0.16327812  0.32625904  0.65763363    -0.12600
C752        C  0.14695678  0.34180129  0.63917332    -0.14200
C753        C  0.32582109  0.17360831  0.65807758    -0.12600
C754        C  0.34193038  0.15810815  0.63948598    -0.14200
C755        C  0.14803604  0.15709450  0.63930729    -0.12600
C756        C  0.16432206  0.17250755  0.65785953    -0.14200
O757        O  0.17480715  0.68135236  0.20741881    -0.74700
O758        O  0.20642515  0.71204780  0.17356319    -0.53600
C759        C  0.18296052  0.68967468  0.18098558     0.79100
O760        O  0.17582784  0.82017895  0.30653850    -0.59300
O761        O  0.20607860  0.78807014  0.34040209    -0.52300
C762        C  0.18355141  0.81144846  0.33297938     0.71100
O763        O  0.17353212  0.81728015  0.20718748    -0.73800
O764        O  0.20606714  0.78746012  0.17342577    -0.54400
C765        C  0.18205805  0.80927132  0.18077876     0.77100
O766        O  0.17642530  0.67943358  0.30676569    -0.59000
O767        O  0.20709379  0.71120379  0.34055850    -0.52100
C768        C  0.18441512  0.68794826  0.33319209     0.73700
Zr769      Zr  0.19339641  0.69652970  0.25709046     2.54700
O770        O  0.13030657  0.69513479  0.25807598    -0.79500
O771        O  0.19659907  0.63193926  0.25669879    -0.92900
Zr772      Zr  0.19230606  0.80247739  0.25686976     2.64700
O773        O  0.12915465  0.80165881  0.25743877    -0.97900
O774        O  0.19399808  0.86707666  0.25525344    -0.80000
O775        O  0.19212703  0.74942244  0.22888966    -0.83300
O776        O  0.19192831  0.74957202  0.28503538    -2.18000
O777        O  0.31319186  0.68046552  0.30681062    -0.66700
O778        O  0.28216634  0.71196411  0.34055782    -0.51300
C779        C  0.30505341  0.68892345  0.33321017     0.72100
O780        O  0.31460466  0.81820379  0.20744036    -0.59600
O781        O  0.28297533  0.78743825  0.17363764    -0.51600
C782        C  0.30649361  0.80974957  0.18103266     0.73900
O783        O  0.31217445  0.82096195  0.30668362    -0.71000
O784        O  0.28166084  0.78896006  0.34045714    -0.49700
C785        C  0.30426088  0.81230511  0.33310146     0.75300
O786        O  0.31566821  0.68283437  0.20760469    -0.66300
O787        O  0.28298803  0.71230735  0.17372707    -0.53500
C788        C  0.30708038  0.69065287  0.18117451     0.73600
Zr789      Zr  0.29650380  0.69768489  0.25711996     2.77500
O790        O  0.35967971  0.69766333  0.25749254    -0.97100
O791        O  0.29342470  0.63314522  0.25555607    -0.77900
Zr792      Zr  0.29534387  0.80365265  0.25702174     2.70100
O793        O  0.35840003  0.80650177  0.25825763    -0.79200
O794        O  0.28990805  0.86800750  0.25478335    -0.98200
Zr795      Zr  0.24448170  0.74995075  0.20141647     2.21500
Zr796      Zr  0.24430105  0.75012199  0.31267097     2.11100
O797        O  0.29676572  0.75069774  0.28513071    -2.46900
O798        O  0.29671973  0.75063331  0.22902646    -0.78900
O799        O  0.24494134  0.69627699  0.28545246    -0.71100
O800        O  0.24389293  0.80392932  0.22859122    -2.32100
O801        O  0.24499585  0.69613014  0.22878959    -2.28300
O802        O  0.24377828  0.80392640  0.28534163    -0.72900
H803        H  0.17186915  0.74940760  0.29766440     0.79100
H804        H  0.24374764  0.82431288  0.21580981     0.80200
H805        H  0.31679041  0.75093104  0.29778602     0.82400
H806        H  0.24526000  0.67570045  0.21601914     0.80000
H807        H  0.21152320  0.87375124  0.27007925     0.43100
H808        H  0.27896345  0.87469785  0.27356347     0.42000
H809        H  0.36601595  0.78279216  0.25143342     0.41700
H810        H  0.36617054  0.71259158  0.27444312     0.39600
H811        H  0.27348583  0.62708761  0.26824947     0.42800
H812        H  0.20893711  0.62595948  0.23837510     0.37600
H813        H  0.12338856  0.72036453  0.25987341     0.43700
H814        H  0.12288605  0.78924130  0.27576716     0.40100
H815        H  0.36613091  0.67321362  0.26333224     0.45000
H816        H  0.17241358  0.62413375  0.25327490     0.43700
H817        H  0.12243322  0.82670096  0.26085134     0.43900
H818        H  0.31402224  0.87684005  0.25636152     0.44200
C819        C  0.36111124  0.86536865  0.39484136     0.87100
C820        C  0.38387930  0.84275473  0.41542289    -0.53100
C821        C  0.40467533  0.86264497  0.43323807     0.10100
C822        C  0.40049157  0.90310099  0.42859308     0.21000
C823        C  0.34067044  0.89067935  0.41493138    -0.53800
C824        C  0.36138719  0.91067461  0.43265186     0.10200
C825        C  0.38654215  0.88918325  0.37804136    -0.53400
C826        C  0.40722897  0.90897958  0.39570943     0.10700
H827        H  0.38413466  0.81391393  0.41543054     0.15200
H828        H  0.41742071  0.91939379  0.44297135     0.01000
H829        H  0.31256116  0.89243204  0.41527758     0.15500
H830        H  0.38754559  0.89092842  0.35435694     0.15300
C831        C  0.36172933  0.63545377  0.39473682     0.87100
C832        C  0.38704952  0.61155145  0.37789244    -0.53100
C833        C  0.40763732  0.59159432  0.39553818     0.10100
C834        C  0.40090424  0.59743649  0.42843389     0.21000
C835        C  0.34114739  0.61020588  0.41475939    -0.53800
C836        C  0.36175155  0.59007564  0.43246081     0.10200
C837        C  0.38458078  0.65789511  0.41536605    -0.53400
C838        C  0.40528117  0.63786309  0.43315743     0.10700
H839        H  0.38803460  0.60986114  0.35420477     0.15200
H840        H  0.41773577  0.58101550  0.44279962     0.01000
H841        H  0.31302681  0.60862621  0.41511275     0.15500
H842        H  0.38495614  0.68673434  0.41541716     0.15300
C843        C  0.12685643  0.86466325  0.39474866     0.87100
C844        C  0.14739827  0.88989838  0.41481194    -0.53100
C845        C  0.12675387  0.90994098  0.43254837     0.10100
C846        C  0.08762087  0.90252724  0.42852376     0.21000
C847        C  0.10405001  0.84212900  0.41537333    -0.53800
C848        C  0.08332756  0.86208327  0.43321228     0.10200
C849        C  0.10148950  0.88857065  0.37796578    -0.53400
C850        C  0.08088247  0.90844837  0.39563674     0.10700
H851        H  0.17551468  0.89154249  0.41515943     0.15200
H852        H  0.07076716  0.91889131  0.44291123     0.01000
H853        H  0.10372066  0.81329051  0.41538854     0.15500
H854        H  0.10049767  0.89033893  0.35428194     0.15300
C855        C  0.12753897  0.63459385  0.39478373     0.87100
C856        C  0.10200485  0.61091167  0.37795696    -0.53100
C857        C  0.08127676  0.59111494  0.39560826     0.10100
C858        C  0.08807548  0.59687666  0.42849158     0.21000
C859        C  0.10487951  0.65720145  0.41546013    -0.53800
C860        C  0.08403107  0.63732756  0.43325511     0.10200
C861        C  0.14792518  0.60914379  0.41477470    -0.53400
C862        C  0.12715954  0.58917102  0.43245937     0.10700
H863        H  0.10100835  0.60920695  0.35427194     0.15200
H864        H  0.07113291  0.58057861  0.44286075     0.01000
H865        H  0.10471409  0.68604122  0.41552224     0.15500
H866        H  0.17603181  0.60732608  0.41512959     0.15300
N867        N  0.49415606  0.94583446  0.38647932    -0.36000
N868        N  0.04668736  0.49986907  0.38306320    -0.56500
N869        N  0.49437412  0.55425865  0.38652301    -0.36000
N870        N  0.44185296  0.50018844  0.38315483    -0.56500
C871        C  0.02212502  0.92656702  0.37868177     0.27600
C872        C  0.46606437  0.92673905  0.37872095     0.27600
C873        C  0.02246069  0.57327915  0.37861378     0.27600
C874        C  0.46640062  0.57344596  0.37858174     0.27600
C875        C  0.06774084  0.97126048  0.38322872     0.36200
C876        C  0.06786339  0.52837505  0.38325375     0.36200
C877        C  0.42068118  0.97168198  0.38330876     0.36200
C878        C  0.42079209  0.52878706  0.38321810     0.36200
C879        C  0.01187131  0.89580892  0.36467493    -0.21300
C880        C  0.47611249  0.89592085  0.36469829    -0.21300
C881        C  0.01240577  0.60394780  0.36436557    -0.21200
C882        C  0.47664768  0.60405244  0.36434127    -0.21200
C883        C  0.10188714  0.98152006  0.38067435    -0.22300
C884        C  0.10196508  0.51796286  0.38069613    -0.22300
C885        C  0.38659127  0.98208415  0.38063082    -0.22300
C886        C  0.38666103  0.51852402  0.38057333    -0.22300
C887        C  0.05648227  0.93593247  0.38473921    -0.17700
C888        C  0.43177365  0.93630911  0.38482196    -0.17700
C889        C  0.43203613  0.56411187  0.38464099    -0.17700
C890        C  0.05676067  0.56375164  0.38471961    -0.17700
H891        H  0.02846157  0.87567078  0.35522826     0.15300
H892        H  0.45938551  0.87588825  0.35527298     0.15300
H893        H  0.02912892  0.62388958  0.35479924     0.15300
H894        H  0.46005312  0.62409177  0.35475056     0.15300
H895        H  0.12399912  0.96432364  0.37754001     0.13500
H896        H  0.12414839  0.53506538  0.37757430     0.13500
H897        H  0.36443131  0.96497483  0.37742485     0.13500
H898        H  0.36456618  0.53571479  0.37732380     0.13500
H899        H  0.49422855  0.96827282  0.39980448     0.26800
H900        H  0.49431464  0.53191978  0.39997330     0.26800
C901        C  0.36193055  0.86419767  0.11945025     0.87100
C902        C  0.34069152  0.88975615  0.10013910    -0.53100
C903        C  0.36084806  0.91064214  0.08262334     0.10100
C904        C  0.40006325  0.90360220  0.08603350     0.21000
C905        C  0.38463768  0.84261521  0.09813937    -0.53800
C906        C  0.40473525  0.86335772  0.08045099     0.10200
C907        C  0.38720519  0.88796545  0.13644147    -0.53400
C908        C  0.40714866  0.90872324  0.11893485     0.10700
H909        H  0.31255220  0.89096933  0.10008504     0.15200
H910        H  0.41649738  0.92058820  0.07178496     0.01000
H911        H  0.38536427  0.81379035  0.09755743     0.15500
H912        H  0.38868801  0.88891242  0.16013938     0.15300
C913        C  0.12579088  0.86342599  0.11941175     0.87100
C914        C  0.10051319  0.88727663  0.13635656    -0.53100
C915        C  0.08061904  0.90806147  0.11880215     0.10100
C916        C  0.08773521  0.90284911  0.08591158     0.21000
C917        C  0.10305276  0.84184824  0.09810833    -0.53800
C918        C  0.08298991  0.86259798  0.08038430     0.10200
C919        C  0.14705720  0.88891295  0.10008367    -0.53400
C920        C  0.12697187  0.90979189  0.08252612     0.10700
H921        H  0.09903747  0.88829958  0.16005076     0.15200
H922        H  0.07135752  0.91984472  0.07162049     0.01000
H923        H  0.10227048  0.81302518  0.09756529     0.15500
H924        H  0.17519827  0.89007339  0.10003894     0.15300
N925        N  0.44063825  0.85098002  0.00652024    -0.36000
N926        N  0.49381502  0.84802158  0.05078947    -0.56500
N927        N  0.04714493  0.85030520  0.00649080    -0.36000
N928        N  0.49395229  0.84503898  0.46218171    -0.56500
C929        C  0.42165269  0.84243235  0.03032905     0.27600
C930        C  0.42187848  0.84125487  0.48291606     0.27600
C931        C  0.06595900  0.84149203  0.03032677     0.27600
C932        C  0.06592202  0.84055329  0.48289605     0.27600
C933        C  0.46584565  0.84684895  0.06855373     0.36200
C934        C  0.02177951  0.84652805  0.06853924     0.36200
C935        C  0.46593617  0.84550403  0.44440271     0.36200
C936        C  0.02196313  0.84532713  0.44438711     0.36200
C937        C  0.39141519  0.82562174  0.02188208    -0.21300
C938        C  0.39153797  0.82491961  0.49171862    -0.21300
C939        C  0.09608256  0.82443734  0.02190727    -0.21200
C940        C  0.09607691  0.82387644  0.49173307    -0.21200
C941        C  0.47597921  0.84111093  0.09700619    -0.22300
C942        C  0.01160050  0.84092248  0.09699897    -0.22300
C943        C  0.47611044  0.84258427  0.41564725    -0.22300
C944        C  0.01176032  0.84248289  0.41563629    -0.22300
C945        C  0.43117205  0.84950288  0.05938452    -0.17700
C946        C  0.43122319  0.84782830  0.45375085    -0.17700
C947        C  0.05669378  0.84735561  0.45372600    -0.17700
C948        C  0.05648189  0.84876585  0.05936612    -0.17700
H949        H  0.37162249  0.81465840  0.03601682     0.15300
H950        H  0.37175897  0.81350672  0.47781218     0.15300
H951        H  0.11576226  0.81330224  0.03606619     0.15300
H952        H  0.11582754  0.81237247  0.47784792     0.15300
H953        H  0.45923346  0.83553287  0.11536118     0.13500
H954        H  0.02830110  0.83517850  0.11535009     0.13500
H955        H  0.45935813  0.83920268  0.39693510     0.13500
H956        H  0.02848269  0.83900125  0.39691655     0.13500
H957        H  0.46291661  0.86662982  0.00628041     0.26800
H958        H  0.02502458  0.86618926  0.00625486     0.26800
C959        C  0.12672014  0.63572821  0.11946585     0.87100
C960        C  0.14781278  0.61030015  0.09996652    -0.53100
C961        C  0.12755961  0.58962799  0.08238904     0.10100
C962        C  0.08837505  0.59669996  0.08590161     0.21000
C963        C  0.10398415  0.65755362  0.09829261    -0.53800
C964        C  0.08378907  0.63700120  0.08050621     0.10200
C965        C  0.10141732  0.61184179  0.13637344    -0.53400
C966        C  0.08136691  0.59125311  0.11878972     0.10700
H967        H  0.17594810  0.60897795  0.09986309     0.15200
H968        H  0.07188665  0.57986247  0.07158393     0.01000
H969        H  0.10336551  0.68638398  0.09783611     0.15500
H970        H  0.10002931  0.61067094  0.16006749     0.15300
N971        N  0.44112214  0.00002540  0.12717423    -0.36000
N972        N  0.49399871  0.94604576  0.13122534    -0.56500
N973        N  0.04733714  0.49973199  0.12709487    -0.36000
N974        N  0.49446819  0.55375191  0.13081181    -0.56500
C975        C  0.42081339  0.97130241  0.13115787     0.27600
C976        C  0.42102767  0.52894274  0.13094192     0.27600
C977        C  0.06741291  0.97080499  0.13096167     0.27600
C978        C  0.06767713  0.52849007  0.13090923     0.27600
C979        C  0.46599405  0.92573017  0.13652186     0.36200
C980        C  0.02189135  0.92554120  0.13643512     0.36200
C981        C  0.46655583  0.57418706  0.13614024     0.36200
C982        C  0.02246247  0.57404840  0.13621321     0.36200
C983        C  0.38759132  0.98196561  0.13818469    -0.21300
C984        C  0.38772933  0.51860192  0.13805185    -0.21300
C985        C  0.10073859  0.98117144  0.13793931    -0.21200
C986        C  0.10089992  0.51781683  0.13792802    -0.21200
C987        C  0.47598945  0.89325902  0.14770016    -0.22300
C988        C  0.01171543  0.89313850  0.14764578    -0.22300
C989        C  0.47670608  0.60651062  0.14749692    -0.22300
C990        C  0.01243231  0.60642471  0.14754037    -0.22300
C991        C  0.43183109  0.93578229  0.12995696    -0.17700
C992        C  0.43232894  0.56436447  0.12953492    -0.17700
C993        C  0.05665961  0.56405026  0.12968587    -0.17700
C994        C  0.05610477  0.93535236  0.12976080    -0.17700
H995        H  0.36612654  0.96503803  0.14430672     0.15300
H996        H  0.36639447  0.53575129  0.14406993     0.15300
H997        H  0.12207939  0.96403632  0.14398052     0.15300
H998        H  0.12238159  0.53474879  0.14398651     0.15300
H999        H  0.45925775  0.87213331  0.15530302     0.13500
H1000       H  0.02833304  0.87189644  0.15520475     0.13500
H1001       H  0.46007010  0.62766328  0.15518864     0.13500
H1002       H  0.02914437  0.62749871  0.15526136     0.13500
H1003       H  0.46599070  0.99990372  0.11875562     0.26800
H1004       H  0.02243319  0.49980008  0.11875325     0.26800
N1005       N  0.13903949  0.49965047  0.05235493    -0.36000
N1006       N  0.14242974  0.55345560  0.00760139    -0.56500
N1007       N  0.13733733  0.49953480  0.46283932    -0.36000
N1008       N  0.14237430  0.94571291  0.00768422    -0.56500
C1009       C  0.14712138  0.52851119  0.06853532     0.27600
C1010       C  0.14697944  0.97078865  0.06859359     0.27600
C1011       C  0.14702802  0.52831502  0.44720116     0.27600
C1012       C  0.14691984  0.97069084  0.44724131     0.27600
C1013       C  0.14271276  0.57512758  0.03109358     0.36200
C1014       C  0.14198443  0.57507235  0.48406472     0.36200
C1015       C  0.14242467  0.92410195  0.03122961     0.36200
C1016       C  0.14171039  0.92403686  0.48418449     0.36200
C1017       C  0.16152875  0.51798837  0.09479196    -0.21300
C1018       C  0.16144039  0.98130835  0.09482948    -0.21300
C1019       C  0.16435885  0.51777686  0.42224239    -0.21200
C1020       C  0.16428407  0.98111450  0.42226523    -0.18700
C1021       C  0.14568971  0.61005597  0.02246862    -0.22300
C1022       C  0.14522654  0.61001359  0.49250418    -0.22300
C1023       C  0.14507328  0.88912309  0.02267174    -0.22300
C1024       C  0.14462915  0.88909335  0.49270308    -0.22300
C1025       C  0.14095746  0.56395569  0.06031517    -0.17700
C1026       C  0.14061422  0.93535602  0.06043656    -0.17700
C1027       C  0.13986085  0.93534952  0.45503175    -0.17700
C1028       C  0.14011337  0.56370191  0.45494545    -0.17700
H1029       H  0.17138127  0.53501110  0.11193511     0.15300
H1030       H  0.17121361  0.96428418  0.11200889     0.15300
H1031       H  0.17604134  0.53476633  0.40590405     0.15300
H1032       H  0.17589150  0.96404928  0.40594669     0.15300
H1033       H  0.14959670  0.63277277  0.03649826     0.13500
H1034       H  0.14887698  0.63264413  0.47832944     0.13500
H1035       H  0.14869793  0.86639489  0.03675044     0.13500
H1036       H  0.14805377  0.86639505  0.47857276     0.13500
H1037       H  0.12462419  0.49965553  0.03312935     0.26800
H1038       H  0.12134131  0.49957989  0.48120166     0.26800
N1039       N  0.44140487  0.64951938  0.00646186    -0.36000
N1040       N  0.49471404  0.65230428  0.05077496    -0.56500
N1041       N  0.04795110  0.64941238  0.00654274    -0.36000
N1042       N  0.49468544  0.65498881  0.46213752    -0.56500
C1043       C  0.42251680  0.65824231  0.03028206     0.27600
C1044       C  0.42265278  0.65926311  0.48284366     0.27600
C1045       C  0.06688219  0.65811284  0.03035191     0.27600
C1046       C  0.06673393  0.65900832  0.48290452     0.27600
C1047       C  0.46673139  0.65352878  0.06852489     0.36200
C1048       C  0.02267126  0.65345367  0.06856627     0.36200
C1049       C  0.46667863  0.65451539  0.44433659     0.36200
C1050       C  0.02271899  0.65434541  0.44437385     0.36200
C1051       C  0.39234797  0.67518788  0.02182704    -0.21300
C1052       C  0.39241431  0.67580174  0.49165298    -0.21300
C1053       C  0.09709842  0.67493800  0.02186094    -0.21200
C1054       C  0.09702807  0.67545991  0.49168337    -0.21200
C1055       C  0.47687901  0.65894337  0.09701378    -0.22300
C1056       C  0.01249250  0.65888732  0.09704116    -0.22300
C1057       C  0.47690528  0.65706745  0.41556890    -0.22300
C1058       C  0.01255666  0.65695417  0.41559305    -0.22300
C1059       C  0.43203260  0.65115340  0.05935372    -0.17700
C1060       C  0.43193281  0.65251702  0.45367528    -0.17700
C1061       C  0.05744234  0.65217305  0.45374819    -0.17700
C1062       C  0.05738030  0.65102873  0.05943411    -0.17700
H1063       H  0.37263841  0.68629446  0.03596704     0.15300
H1064       H  0.37267093  0.68729617  0.47775022     0.15300
H1065       H  0.11687798  0.68596224  0.03597467     0.15300
H1066       H  0.11683142  0.68679476  0.47775517     0.15300
H1067       H  0.46015348  0.66446354  0.11539019     0.13500
H1068       H  0.02920288  0.66435193  0.11544009     0.13500
H1069       H  0.46019321  0.66036787  0.39682036     0.13500
H1070       H  0.02932289  0.66014956  0.39686699     0.13500
H1071       H  0.46360314  0.63374861  0.00624807     0.26800
H1072       H  0.02571304  0.63370346  0.00633949     0.26800
C1073       C  0.36285923  0.63653372  0.11955086     0.87100
C1074       C  0.38570028  0.65813112  0.09832429    -0.53100
C1075       C  0.40556121  0.63737680  0.08043950     0.10100
C1076       C  0.40060196  0.59713371  0.08581226     0.21000
C1077       C  0.34138752  0.61135727  0.10011394    -0.53800
C1078       C  0.36132341  0.59050574  0.08241543     0.10200
C1079       C  0.38799036  0.61239250  0.13634904    -0.53400
C1080       C  0.40774706  0.59164927  0.11868134     0.10700
H1081       H  0.38665622  0.68695197  0.09791710     0.15200
H1082       H  0.41685404  0.58013162  0.07143280     0.01000
H1083       H  0.31324093  0.61033083  0.10014255     0.15500
H1084       H  0.38953292  0.61121422  0.16003790     0.15300
N1085       N  0.34928096  0.00064115  0.05249356    -0.36000
N1086       N  0.34590717  0.94673181  0.00776577    -0.56500
N1087       N  0.35109983  0.00047672  0.46284602    -0.36000
N1088       N  0.34594333  0.55444375  0.00763321    -0.56500
C1089       C  0.34129311  0.97181860  0.06876279     0.27600
C1090       C  0.34133052  0.52954327  0.06866407     0.27600
C1091       C  0.34152773  0.97164219  0.44722333     0.27600
C1092       C  0.34159670  0.52929089  0.44716354     0.27600
C1093       C  0.34551032  0.92513748  0.03133026     0.36200
C1094       C  0.34637215  0.92502764  0.48426747     0.36200
C1095       C  0.34567866  0.57611685  0.03114116     0.36200
C1096       C  0.34651764  0.57605254  0.48407612     0.36200
C1097       C  0.32696662  0.98241382  0.09503389    -0.21300
C1098       C  0.32699601  0.51909647  0.09497319    -0.21300
C1099       C  0.32432557  0.98212012  0.42217705    -0.21200
C1100       C  0.32437653  0.51879226  0.42213495    -0.21200
C1101       C  0.34246803  0.89019554  0.02277509    -0.22300
C1102       C  0.34300936  0.89013521  0.49280834    -0.22300
C1103       C  0.34280262  0.61105107  0.02249717    -0.22300
C1104       C  0.34333761  0.61100449  0.49252084    -0.22300
C1105       C  0.34735798  0.93634194  0.06055991    -0.17700
C1106       C  0.34754714  0.56495792  0.06038863    -0.17700
C1107       C  0.34857353  0.56466937  0.45493927    -0.17700
C1108       C  0.34838911  0.93626147  0.45508673    -0.17700
H1109       H  0.31715688  0.96543882  0.11223156     0.15300
H1110       H  0.31723720  0.53617052  0.11212187     0.15300
H1111       H  0.31272183  0.96508712  0.40583336     0.15300
H1112       H  0.31282682  0.53581326  0.40574883     0.15300
H1113       H  0.33854207  0.86751594  0.03685118     0.13500
H1114       H  0.33936264  0.86745682  0.47869468     0.13500
H1115       H  0.33901736  0.63379848  0.03652048     0.13500
H1116       H  0.33986326  0.63366415  0.47834365     0.13500
H1117       H  0.36360816  0.00059545  0.03322367     0.26800
H1118       H  0.36697459  0.00048998  0.48128130     0.26800
C1119       C  0.33916447  0.84480278  0.37488287    -0.12600
C1120       C  0.32258710  0.82977235  0.35628320    -0.14200
C1121       C  0.33988473  0.65622071  0.37487214    -0.12600
C1122       C  0.32335809  0.67144779  0.35636626    -0.14200
C1123       C  0.16518472  0.82895314  0.35611908    -0.12600
C1124       C  0.14870346  0.84403175  0.37475449    -0.14200
C1125       C  0.32502800  0.82688558  0.15787522    -0.12600
C1126       C  0.34091922  0.84253845  0.13924360    -0.14200
C1127       C  0.14954248  0.65519468  0.37488016    -0.12600
C1128       C  0.16612530  0.67036134  0.35634961    -0.14200
C1129       C  0.16327811  0.82625901  0.15763359    -0.12600
C1130       C  0.14695677  0.84180125  0.13917327    -0.14200
C1131       C  0.32582104  0.67360830  0.15807751    -0.12600
C1132       C  0.34193035  0.65810812  0.13948594    -0.14200
C1133       C  0.14803606  0.65709449  0.13930726    -0.12600
C1134       C  0.16432206  0.67250756  0.15785951    -0.14200
O1135       O  0.17480716  0.68135233  0.70741880    -0.74700
O1136       O  0.20642516  0.71204775  0.67356317    -0.53600
C1137       C  0.18296054  0.68967463  0.68098557     0.79100
O1138       O  0.17582786  0.82017890  0.80653856    -0.59300
O1139       O  0.20607861  0.78807008  0.84040215    -0.52300
C1140       C  0.18355143  0.81144841  0.83297944     0.71100
O1141       O  0.17353212  0.81728010  0.70718753    -0.73800
O1142       O  0.20606713  0.78746008  0.67342581    -0.54400
C1143       C  0.18205805  0.80927127  0.68077881     0.77100
O1144       O  0.17642510  0.67943378  0.80676572    -0.59000
O1145       O  0.20709383  0.71120371  0.84055855    -0.52100
C1146       C  0.18441506  0.68794829  0.83319213     0.73700
Zr1147     Zr  0.19339627  0.69652979  0.75709044     2.54700
O1148       O  0.13030640  0.69513474  0.75807562    -0.79500
O1149       O  0.19659915  0.63193939  0.75669893    -0.92900
Zr1150     Zr  0.19230607  0.80247740  0.75686980     2.64700
O1151       O  0.12915464  0.80165876  0.75743885    -0.97900
O1152       O  0.19399802  0.86707660  0.75525324    -0.80000
O1153       O  0.19212701  0.74942254  0.72888965    -0.83300
O1154       O  0.19192824  0.74957204  0.78503542    -2.18000
O1155       O  0.31319181  0.68046550  0.80681062    -0.66700
O1156       O  0.28216642  0.71196419  0.84055783    -0.51300
C1157       C  0.30505344  0.68892351  0.83321017     0.72100
O1158       O  0.31460468  0.81820373  0.70744040    -0.59600
O1159       O  0.28297533  0.78743818  0.67363771    -0.51600
C1160       C  0.30649364  0.80974947  0.68103272     0.73900
O1161       O  0.31217444  0.82096189  0.80668366    -0.71000
O1162       O  0.28166084  0.78896000  0.84045718    -0.49700
C1163       C  0.30426088  0.81230504  0.83310150     0.75300
O1164       O  0.31566820  0.68283431  0.70760475    -0.66300
O1165       O  0.28298804  0.71230729  0.67372713    -0.53500
C1166       C  0.30708039  0.69065281  0.68117457     0.73600
Zr1167     Zr  0.29650370  0.69768484  0.75711999     2.77500
O1168       O  0.35967962  0.69766341  0.75749246    -0.97100
O1169       O  0.29342479  0.63314519  0.75555606    -0.77900
Zr1170     Zr  0.29534383  0.80365263  0.75702177     2.70100
O1171       O  0.35839997  0.80650161  0.75825794    -0.79200
O1172       O  0.28990815  0.86800750  0.75478326    -0.98200
Zr1173     Zr  0.24448169  0.74995073  0.70141650     2.21500
Zr1174     Zr  0.24430103  0.75012194  0.81267100     2.11100
O1175       O  0.29676570  0.75069769  0.78513070    -2.46900
O1176       O  0.29671971  0.75063326  0.72902650    -0.78900
O1177       O  0.24494119  0.69627695  0.78545247    -0.71100
O1178       O  0.24389289  0.80392927  0.72859123    -2.32100
O1179       O  0.24499575  0.69613017  0.72878962    -2.28300
O1180       O  0.24377828  0.80392637  0.78534169    -0.72900
H1181       H  0.17186927  0.74940760  0.79766424     0.79100
H1182       H  0.24374751  0.82431289  0.71580970     0.80200
H1183       H  0.31679035  0.75093097  0.79778589     0.82400
H1184       H  0.24525992  0.67570064  0.71601922     0.80000
H1185       H  0.21152305  0.87375125  0.77007913     0.43100
H1186       H  0.27896445  0.87469804  0.77356373     0.42000
H1187       H  0.36601588  0.78279309  0.75143108     0.41700
H1188       H  0.36617053  0.71259260  0.77444239     0.39600
H1189       H  0.27348680  0.62708745  0.76825044     0.42800
H1190       H  0.20893807  0.62595961  0.73837571     0.37600
H1191       H  0.12338825  0.72036470  0.75987064     0.43700
H1192       H  0.12288603  0.78924124  0.77576722     0.40100
H1193       H  0.36613089  0.67321396  0.76333309     0.45000
H1194       H  0.17241377  0.62413380  0.75327430     0.43700
H1195       H  0.12243320  0.82670092  0.76085141     0.43900
H1196       H  0.31402243  0.87683999  0.75636049     0.44200
C1197       C  0.36111120  0.86536864  0.89484137     0.87100
C1198       C  0.38387927  0.84275470  0.91542289    -0.53100
C1199       C  0.40467534  0.86264492  0.93323805     0.10100
C1200       C  0.40049158  0.90310093  0.92859307     0.21000
C1201       C  0.34067036  0.89067938  0.91493138    -0.53800
C1202       C  0.36138718  0.91067458  0.93265188     0.10200
C1203       C  0.38654215  0.88918322  0.87804135    -0.53400
C1204       C  0.40722896  0.90897954  0.89570942     0.10700
H1205       H  0.38413458  0.81391390  0.91543054     0.15200
H1206       H  0.41742076  0.91939372  0.94297132     0.01000
H1207       H  0.31256108  0.89243216  0.91527755     0.15500
H1208       H  0.38754559  0.89092836  0.85435692     0.15300
C1209       C  0.36172934  0.63545382  0.89473687     0.87100
C1210       C  0.38704955  0.61155150  0.87789249    -0.53100
C1211       C  0.40763733  0.59159434  0.89553822     0.10100
C1212       C  0.40090421  0.59743648  0.92843392     0.21000
C1213       C  0.34114740  0.61020589  0.91475943    -0.53800
C1214       C  0.36175155  0.59007562  0.93246083     0.10200
C1215       C  0.38458079  0.65789510  0.91536614    -0.53400
C1216       C  0.40528117  0.63786307  0.93315750     0.10700
H1217       H  0.38803468  0.60986125  0.85420482     0.15200
H1218       H  0.41773573  0.58101546  0.94279965     0.01000
H1219       H  0.31302683  0.60862621  0.91511283     0.15500
H1220       H  0.38495618  0.68673433  0.91541726     0.15300
C1221       C  0.12685647  0.86466330  0.89474868     0.87100
C1222       C  0.14739830  0.88989840  0.91481197    -0.53100
C1223       C  0.12675387  0.90994102  0.93254836     0.10100
C1224       C  0.08762086  0.90252728  0.92852375     0.21000
C1225       C  0.10405004  0.84212917  0.91537336    -0.53800
C1226       C  0.08332756  0.86208336  0.93321230     0.10200
C1227       C  0.10148953  0.88857064  0.87796577    -0.53400
C1228       C  0.08088250  0.90844838  0.89563671     0.10700
H1229       H  0.17551470  0.89154253  0.91515949     0.15200
H1230       H  0.07076714  0.91889136  0.94291121     0.01000
H1231       H  0.10372068  0.81329068  0.91538859     0.15500
H1232       H  0.10049769  0.89033888  0.85428194     0.15300
C1233       C  0.12753898  0.63459379  0.89478377     0.87100
C1234       C  0.10200487  0.61091162  0.87795700    -0.53100
C1235       C  0.08127676  0.59111488  0.89560829     0.10100
C1236       C  0.08807544  0.59687657  0.92849163     0.21000
C1237       C  0.10487952  0.65720139  0.91546016    -0.53800
C1238       C  0.08403106  0.63732750  0.93325513     0.10200
C1239       C  0.14792519  0.60914374  0.91477476    -0.53400
C1240       C  0.12715953  0.58917096  0.93245942     0.10700
H1241       H  0.10100839  0.60920691  0.85427197     0.15200
H1242       H  0.07113285  0.58057852  0.94286078     0.01000
H1243       H  0.10471407  0.68604117  0.91552228     0.15500
H1244       H  0.17603182  0.60732605  0.91512967     0.15300
N1245       N  0.49415609  0.94583437  0.88647933    -0.36000
N1246       N  0.04668739  0.49986902  0.88306323    -0.56500
N1247       N  0.49437414  0.55425857  0.88652297    -0.36000
N1248       N  0.44185298  0.50018846  0.88315470    -0.56500
C1249       C  0.02212503  0.92656699  0.87868176     0.27600
C1250       C  0.46606439  0.92673900  0.87872101     0.27600
C1251       C  0.02246070  0.57327907  0.87861371     0.27600
C1252       C  0.46640065  0.57344599  0.87858177     0.27600
C1253       C  0.06774086  0.97126048  0.88322861     0.36200
C1254       C  0.06786343  0.52837500  0.88325377     0.36200
C1255       C  0.42068118  0.97168197  0.88330882     0.36200
C1256       C  0.42079211  0.52878708  0.88321806     0.36200
C1257       C  0.01187128  0.89580893  0.86467491    -0.21300
C1258       C  0.47611253  0.89592078  0.86469839    -0.21300
C1259       C  0.01240578  0.60394779  0.86436557    -0.21200
C1260       C  0.47664768  0.60405250  0.86434128    -0.21200
C1261       C  0.10188714  0.98152008  0.88067420    -0.22300
C1262       C  0.10196514  0.51796285  0.88069602    -0.22300
C1263       C  0.38659128  0.98208417  0.88063084    -0.22300
C1264       C  0.38666106  0.51852404  0.88057331    -0.22300
C1265       C  0.05648231  0.93593246  0.88473912    -0.17700
C1266       C  0.43177365  0.93630909  0.88482199    -0.17700
C1267       C  0.43203616  0.56411189  0.88464105    -0.17700
C1268       C  0.05676068  0.56375158  0.88471962    -0.17700
H1269       H  0.02846152  0.87567082  0.85522816     0.15300
H1270       H  0.45938553  0.87588823  0.85527304     0.15300
H1271       H  0.02912894  0.62388960  0.85479929     0.15300
H1272       H  0.46005308  0.62409181  0.85475057     0.15300
H1273       H  0.12399915  0.96432372  0.87753984     0.13500
H1274       H  0.12414846  0.53506535  0.87757419     0.13500
H1275       H  0.36443130  0.96497489  0.87742488     0.13500
H1276       H  0.36456618  0.53571479  0.87732380     0.13500
H1277       H  0.49422860  0.96827281  0.89980445     0.26800
H1278       H  0.49431465  0.53191972  0.89997322     0.26800
C1279       C  0.36193056  0.86419761  0.61945027     0.87100
C1280       C  0.34069151  0.88975615  0.60013917    -0.53100
C1281       C  0.36084804  0.91064216  0.58262341     0.10100
C1282       C  0.40006320  0.90360219  0.58603360     0.21000
C1283       C  0.38463766  0.84261521  0.59813932    -0.53800
C1284       C  0.40473521  0.86335777  0.58045099     0.10200
C1285       C  0.38720520  0.88796536  0.63644152    -0.53400
C1286       C  0.40714864  0.90872320  0.61893493     0.10700
H1287       H  0.31255220  0.89096934  0.60008513     0.15200
H1288       H  0.41649733  0.92058824  0.57178510     0.01000
H1289       H  0.38536421  0.81379036  0.59755729     0.15500
H1290       H  0.38868802  0.88891228  0.66013943     0.15300
C1291       C  0.12579090  0.86342605  0.61941179     0.87100
C1292       C  0.10051321  0.88727674  0.63635651    -0.53100
C1293       C  0.08061904  0.90806158  0.61880214     0.10100
C1294       C  0.08773523  0.90284919  0.58591162     0.21000
C1295       C  0.10305277  0.84184822  0.59810839    -0.53800
C1296       C  0.08298993  0.86259803  0.58038437     0.10200
C1297       C  0.14705722  0.88891304  0.60008374    -0.53400
C1298       C  0.12697190  0.90979194  0.58252615     0.10700
H1299       H  0.09903749  0.88829973  0.66005071     0.15200
H1300       H  0.07135756  0.91984476  0.57162050     0.01000
H1301       H  0.10227048  0.81302517  0.59756536     0.15500
H1302       H  0.17519829  0.89007350  0.60003903     0.15300
N1303       N  0.44063826  0.85097999  0.50652027    -0.36000
N1304       N  0.49381503  0.84802179  0.55078950    -0.56500
N1305       N  0.04714487  0.85030530  0.50649085    -0.36000
N1306       N  0.49395229  0.84503901  0.96218170    -0.56500
C1307       C  0.42165268  0.84243234  0.53032906     0.27600
C1308       C  0.42187848  0.84125485  0.98291604     0.27600
C1309       C  0.06595902  0.84149213  0.53032683     0.27600
C1310       C  0.06592200  0.84055326  0.98289600     0.27600
C1311       C  0.46584561  0.84684911  0.56855375     0.36200
C1312       C  0.02177951  0.84652804  0.56853925     0.36200
C1313       C  0.46593616  0.84550399  0.94440267     0.36200
C1314       C  0.02196312  0.84532721  0.94438711     0.36200
C1315       C  0.39141521  0.82562172  0.52188210    -0.21300
C1316       C  0.39153798  0.82491959  0.99171860    -0.21300
C1317       C  0.09608256  0.82443739  0.52190734    -0.21200
C1318       C  0.09607686  0.82387643  0.99173302    -0.21200
C1319       C  0.47597907  0.84111088  0.59700625    -0.22300
C1320       C  0.01160040  0.84092246  0.59699893    -0.22300
C1321       C  0.47611042  0.84258413  0.91564718    -0.22300
C1322       C  0.01176026  0.84248292  0.91563633    -0.22300
C1323       C  0.43117203  0.84950301  0.55938451    -0.17700
C1324       C  0.43122320  0.84782824  0.95375082    -0.17700
C1325       C  0.05669379  0.84735564  0.95372598    -0.17700
C1326       C  0.05648190  0.84876595  0.55936617    -0.17700
H1327       H  0.37162250  0.81465837  0.53601685     0.15300
H1328       H  0.37175901  0.81350668  0.97781213     0.15300
H1329       H  0.11576219  0.81330225  0.53606630     0.15300
H1330       H  0.11582748  0.81237248  0.97784783     0.15300
H1331       H  0.45923325  0.83553269  0.61536116     0.13500
H1332       H  0.02830102  0.83517850  0.61535006     0.13500
H1333       H  0.45935814  0.83920252  0.89693501     0.13500
H1334       H  0.02848270  0.83900124  0.89691663     0.13500
H1335       H  0.46291661  0.86662980  0.50628052     0.26800
H1336       H  0.02502453  0.86618930  0.50625492     0.26800
C1337       C  0.12672016  0.63572819  0.61946582     0.87100
C1338       C  0.14781279  0.61030012  0.59996649    -0.53100
C1339       C  0.12755960  0.58962797  0.58238901     0.10100
C1340       C  0.08837505  0.59669991  0.58590159     0.21000
C1341       C  0.10398418  0.65755366  0.59829256    -0.53800
C1342       C  0.08378909  0.63700118  0.58050619     0.10200
C1343       C  0.10141734  0.61184176  0.63637340    -0.53400
C1344       C  0.08136694  0.59125307  0.61878970     0.10700
H1345       H  0.17594811  0.60897795  0.59986303     0.15200
H1346       H  0.07188665  0.57986241  0.57158392     0.01000
H1347       H  0.10336556  0.68638403  0.59783601     0.15500
H1348       H  0.10002933  0.61067090  0.66006745     0.15300
N1349       N  0.44112217  0.00002535  0.62717426    -0.36000
N1350       N  0.49399869  0.94604579  0.63122543    -0.56500
N1351       N  0.04733706  0.49973196  0.62709491    -0.36000
N1352       N  0.49446821  0.55375200  0.63081183    -0.56500
C1353       C  0.42081341  0.97130237  0.63115799     0.27600
C1354       C  0.42102773  0.52894277  0.63094190     0.27600
C1355       C  0.06741289  0.97080509  0.63096172     0.27600
C1356       C  0.06767715  0.52849004  0.63090930     0.27600
C1357       C  0.46599405  0.92573013  0.63652188     0.36200
C1358       C  0.02189134  0.92554126  0.63643520     0.36200
C1359       C  0.46655584  0.57418713  0.63614029     0.36200
C1360       C  0.02246249  0.57404849  0.63621326     0.36200
C1361       C  0.38759138  0.98196559  0.63818487    -0.21300
C1362       C  0.38772937  0.51860193  0.63805183    -0.21300
C1363       C  0.10073855  0.98117157  0.63793936    -0.21200
C1364       C  0.10089996  0.51781675  0.63792803    -0.21200
C1365       C  0.47598946  0.89325895  0.64770009    -0.22300
C1366       C  0.01171542  0.89313854  0.64764577    -0.22300
C1367       C  0.47670607  0.60651071  0.64749704    -0.22300
C1368       C  0.01243233  0.60642477  0.64754040    -0.22300
C1369       C  0.43183109  0.93578225  0.62995703    -0.17700
C1370       C  0.43232895  0.56436451  0.62953496    -0.17700
C1371       C  0.05665962  0.56405027  0.62968592    -0.17700
C1372       C  0.05610476  0.93535245  0.62976083    -0.17700
H1373       H  0.36612661  0.96503801  0.64430695     0.15300
H1374       H  0.36639459  0.53575138  0.64406997     0.15300
H1375       H  0.12207933  0.96403644  0.64398059     0.15300
H1376       H  0.12238162  0.53474875  0.64398650     0.15300
H1377       H  0.45925780  0.87213316  0.65530286     0.13500
H1378       H  0.02833306  0.87189651  0.65520473     0.13500
H1379       H  0.46007009  0.62766333  0.65518880     0.13500
H1380       H  0.02914435  0.62749879  0.65526144     0.13500
H1381       H  0.46599064  0.99990367  0.61875555     0.26800
H1382       H  0.02243320  0.49980009  0.61875339     0.26800
N1383       N  0.13903934  0.49965047  0.55235501    -0.36000
N1384       N  0.14242969  0.55345554  0.50760134    -0.56500
N1385       N  0.13733737  0.49953475  0.96283935    -0.36000
N1386       N  0.14237429  0.94571287  0.50768424    -0.56500
C1387       C  0.14712125  0.52851120  0.56853536     0.27600
C1388       C  0.14697943  0.97078866  0.56859360     0.27600
C1389       C  0.14702805  0.52831499  0.94720122     0.27600
C1390       C  0.14691984  0.97069087  0.94724129     0.27600
C1391       C  0.14271266  0.57512755  0.53109354     0.36200
C1392       C  0.14198445  0.57507243  0.98406476     0.36200
C1393       C  0.14242473  0.92410194  0.53122964     0.36200
C1394       C  0.14171041  0.92403691  0.98418446     0.36200
C1395       C  0.16152874  0.51798839  0.59479197    -0.21300
C1396       C  0.16144028  0.98130841  0.59482948    -0.21300
C1397       C  0.16435884  0.51777684  0.92224241    -0.21200
C1398       C  0.16428405  0.98111453  0.92226521    -0.18700
C1399       C  0.14568967  0.61005594  0.52246863    -0.22300
C1400       C  0.14522658  0.61001375  0.99250414    -0.22300
C1401       C  0.14507342  0.88912309  0.52267178    -0.22300
C1402       C  0.14462908  0.88909341  0.99270305    -0.22300
C1403       C  0.14095741  0.56395567  0.56031514    -0.17700
C1404       C  0.14061426  0.93535603  0.56043660    -0.17700
C1405       C  0.13986084  0.93534957  0.95503174    -0.17700
C1406       C  0.14011337  0.56370189  0.95494550    -0.17700
H1407       H  0.17138140  0.53501107  0.61193507     0.15300
H1408       H  0.17121352  0.96428424  0.61200889     0.15300
H1409       H  0.17604133  0.53476632  0.90590407     0.15300
H1410       H  0.17589144  0.96404932  0.90594665     0.15300
H1411       H  0.14959673  0.63277278  0.53649820     0.13500
H1412       H  0.14887700  0.63264430  0.97832940     0.13500
H1413       H  0.14869816  0.86639493  0.53675053     0.13500
H1414       H  0.14805371  0.86639514  0.97857271     0.13500
H1415       H  0.12462398  0.49965552  0.53312942     0.26800
H1416       H  0.12134137  0.49957983  0.98120170     0.26800
N1417       N  0.44140481  0.64951939  0.50646181    -0.36000
N1418       N  0.49471403  0.65230425  0.55077490    -0.56500
N1419       N  0.04795116  0.64941235  0.50654277    -0.36000
N1420       N  0.49468545  0.65498899  0.96213755    -0.56500
C1421       C  0.42251677  0.65824232  0.53028199     0.27600
C1422       C  0.42265280  0.65926308  0.98284372     0.27600
C1423       C  0.06688222  0.65811281  0.53035193     0.27600
C1424       C  0.06673389  0.65900838  0.98290449     0.27600
C1425       C  0.46673135  0.65352868  0.56852486     0.36200
C1426       C  0.02267125  0.65345361  0.56856623     0.36200
C1427       C  0.46667865  0.65451540  0.94433663     0.36200
C1428       C  0.02271900  0.65434534  0.94437383     0.36200
C1429       C  0.39234799  0.67518790  0.52182694    -0.21300
C1430       C  0.39241431  0.67580171  0.99165307    -0.21300
C1431       C  0.09709846  0.67493799  0.52186097    -0.21200
C1432       C  0.09702803  0.67545992  0.99168338    -0.21200
C1433       C  0.47687890  0.65894320  0.59701384    -0.22300
C1434       C  0.01249246  0.65888726  0.59704111    -0.22300
C1435       C  0.47690532  0.65706737  0.91556896    -0.22300
C1436       C  0.01255671  0.65695411  0.91559305    -0.22300
C1437       C  0.43203257  0.65115334  0.55935367    -0.17700
C1438       C  0.43193283  0.65251698  0.95367534    -0.17700
C1439       C  0.05744235  0.65217304  0.95374818    -0.17700
C1440       C  0.05738032  0.65102868  0.55943410    -0.17700
H1441       H  0.37263840  0.68629447  0.53596694     0.15300
H1442       H  0.37267097  0.68729616  0.97775029     0.15300
H1443       H  0.11687800  0.68596222  0.53597472     0.15300
H1444       H  0.11683146  0.68679470  0.97775521     0.15300
H1445       H  0.46015339  0.66446328  0.61539028     0.13500
H1446       H  0.02920289  0.66435185  0.61543999     0.13500
H1447       H  0.46019326  0.66036772  0.89682040     0.13500
H1448       H  0.02932292  0.66014952  0.89686698     0.13500
H1449       H  0.46360306  0.63374856  0.50624808     0.26800
H1450       H  0.02571304  0.63370343  0.50633954     0.26800
C1451       C  0.36285925  0.63653371  0.61955085     0.87100
C1452       C  0.38570029  0.65813108  0.59832427    -0.53100
C1453       C  0.40556118  0.63737674  0.58043947     0.10100
C1454       C  0.40060195  0.59713365  0.58581226     0.21000
C1455       C  0.34138762  0.61135725  0.60011396    -0.53800
C1456       C  0.36132344  0.59050571  0.58241544     0.10200
C1457       C  0.38799035  0.61239251  0.63634896    -0.53400
C1458       C  0.40774707  0.59164925  0.61868133     0.10700
H1459       H  0.38665630  0.68695190  0.59791708     0.15200
H1460       H  0.41685402  0.58013154  0.57143282     0.01000
H1461       H  0.31324103  0.61033083  0.60014255     0.15500
H1462       H  0.38953296  0.61121429  0.66003783     0.15300
N1463       N  0.34928102  0.00064115  0.55249348    -0.36000
N1464       N  0.34590718  0.94673182  0.50776577    -0.56500
N1465       N  0.35109970  0.00047668  0.96284611    -0.36000
N1466       N  0.34594335  0.55444379  0.50763321    -0.56500
C1467       C  0.34129314  0.97181860  0.56876283     0.27600
C1468       C  0.34133052  0.52954327  0.56866410     0.27600
C1469       C  0.34152767  0.97164214  0.94722336     0.27600
C1470       C  0.34159667  0.52929086  0.94716356     0.27600
C1471       C  0.34551033  0.92513749  0.53133027     0.36200
C1472       C  0.34637215  0.92502761  0.98426749     0.36200
C1473       C  0.34567868  0.57611688  0.53114116     0.36200
C1474       C  0.34651765  0.57605252  0.98407612     0.36200
C1475       C  0.32696672  0.98241380  0.59503400    -0.21300
C1476       C  0.32699599  0.51909648  0.59497322    -0.21300
C1477       C  0.32432554  0.98212008  0.92217702    -0.21200
C1478       C  0.32437641  0.51879221  0.92213499    -0.21200
C1479       C  0.34246806  0.89019559  0.52277504    -0.22300
C1480       C  0.34300934  0.89013516  0.99280835    -0.22300
C1481       C  0.34280263  0.61105109  0.52249719    -0.22300
C1482       C  0.34333764  0.61100449  0.99252082    -0.22300
C1483       C  0.34735799  0.93634193  0.56055992    -0.17700
C1484       C  0.34754712  0.56495792  0.56038864    -0.17700
C1485       C  0.34857352  0.56466933  0.95493929    -0.17700
C1486       C  0.34838914  0.93626144  0.95508675    -0.17700
H1487       H  0.31715708  0.96543876  0.61223167     0.15300
H1488       H  0.31723722  0.53617052  0.61212195     0.15300
H1489       H  0.31272189  0.96508701  0.90583333     0.15300
H1490       H  0.31282667  0.53581324  0.90574890     0.15300
H1491       H  0.33854212  0.86751594  0.53685108     0.13500
H1492       H  0.33936260  0.86745679  0.97869467     0.13500
H1493       H  0.33901735  0.63379851  0.53652047     0.13500
H1494       H  0.33986334  0.63366416  0.97834365     0.13500
H1495       H  0.36360814  0.00059543  0.53322359     0.26800
H1496       H  0.36697443  0.00048992  0.98128142     0.26800
C1497       C  0.33916448  0.84480277  0.87488287    -0.12600
C1498       C  0.32258711  0.82977230  0.85628323    -0.14200
C1499       C  0.33988477  0.65622081  0.87487218    -0.12600
C1500       C  0.32335818  0.67144788  0.85636627    -0.14200
C1501       C  0.16518472  0.82895309  0.85611911    -0.12600
C1502       C  0.14870345  0.84403175  0.87475451    -0.14200
C1503       C  0.32502807  0.82688538  0.65787525    -0.12600
C1504       C  0.34091926  0.84253827  0.63924360    -0.14200
C1505       C  0.14954251  0.65519463  0.87488021    -0.12600
C1506       C  0.16612531  0.67036130  0.85634965    -0.14200
C1507       C  0.16327810  0.82625898  0.65763364    -0.12600
C1508       C  0.14695678  0.84180130  0.63917334    -0.14200
C1509       C  0.32582106  0.67360824  0.65807758    -0.12600
C1510       C  0.34193036  0.65810808  0.63948598    -0.14200
C1511       C  0.14803605  0.65709443  0.63930727    -0.12600
C1512       C  0.16432205  0.67250748  0.65785953    -0.14200
O1513       O  0.67480716  0.18135239  0.20741886    -0.74700
O1514       O  0.70642527  0.21204769  0.17356324    -0.53600
C1515       C  0.68296056  0.18967465  0.18098564     0.79100
O1516       O  0.67582780  0.32017887  0.30653859    -0.59300
O1517       O  0.70607868  0.28807018  0.34040218    -0.52300
C1518       C  0.68355140  0.31144841  0.33297948     0.71100
O1519       O  0.67353217  0.31728016  0.20718746    -0.73800
O1520       O  0.70606707  0.28746002  0.17342575    -0.54400
C1521       C  0.68205803  0.30927126  0.18077874     0.77100
O1522       O  0.67642513  0.17943364  0.30676568    -0.59000
O1523       O  0.70709374  0.21120374  0.34055848    -0.52100
C1524       C  0.68441505  0.18794823  0.33319207     0.73700
Zr1525     Zr  0.69339633  0.19652974  0.25709046     2.54700
O1526       O  0.63030645  0.19513469  0.25807578    -0.79500
O1527       O  0.69659928  0.13193930  0.25669888    -0.92900
Zr1528     Zr  0.69230598  0.30247742  0.25686978     2.64700
O1529       O  0.62915458  0.30165875  0.25743874    -0.97900
O1530       O  0.69399808  0.36707665  0.25525316    -0.80000
O1531       O  0.69212696  0.24942249  0.22888966    -0.83300
O1532       O  0.69192817  0.24957203  0.28503539    -2.18000
O1533       O  0.81319173  0.18046552  0.30681063    -0.66700
O1534       O  0.78216620  0.21196411  0.34055781    -0.51300
C1535       C  0.80505326  0.18892345  0.33321018     0.72100
O1536       O  0.81460460  0.31820364  0.20744041    -0.59600
O1537       O  0.78297518  0.28743826  0.17363766    -0.51600
C1538       C  0.80649352  0.30974949  0.18103271     0.73900
O1539       O  0.81217453  0.32096175  0.30668373    -0.71000
O1540       O  0.78166078  0.28895993  0.34045720    -0.49700
C1541       C  0.80426087  0.31230492  0.33310156     0.75300
O1542       O  0.81566826  0.18283445  0.20760470    -0.66300
O1543       O  0.78298795  0.21230735  0.17372714    -0.53500
C1544       C  0.80708035  0.19065291  0.18117454     0.73600
Zr1545     Zr  0.79650371  0.19768490  0.25711997     2.77500
O1546       O  0.85967958  0.19766351  0.25749253    -0.97100
O1547       O  0.79342483  0.13314518  0.25555606    -0.77900
Zr1548     Zr  0.79534385  0.30365269  0.25702180     2.70100
O1549       O  0.85840007  0.30650164  0.25825785    -0.79200
O1550       O  0.78990830  0.36800757  0.25478313    -0.98200
Zr1551     Zr  0.74448165  0.24995079  0.20141653     2.21500
Zr1552     Zr  0.74430093  0.25012202  0.31267096     2.11100
O1553       O  0.79676564  0.25069776  0.28513074    -2.46900
O1554       O  0.79671969  0.25063336  0.22902650    -0.78900
O1555       O  0.74494123  0.19627704  0.28545246    -0.71100
O1556       O  0.74389288  0.30392932  0.22859130    -2.32100
O1557       O  0.74499579  0.19613019  0.22878961    -2.28300
O1558       O  0.74377821  0.30392645  0.28534163    -0.72900
H1559       H  0.67186900  0.24940754  0.29766440     0.79100
H1560       H  0.74374756  0.32431301  0.21580980     0.80200
H1561       H  0.81679018  0.25093107  0.29778600     0.82400
H1562       H  0.74526003  0.17570051  0.21601914     0.80000
H1563       H  0.71152288  0.37375128  0.27007927     0.43100
H1564       H  0.77896429  0.37469811  0.27356351     0.42000
H1565       H  0.86601598  0.28279302  0.25143125     0.41700
H1566       H  0.86617038  0.21259254  0.27444262     0.39600
H1567       H  0.77348698  0.12708734  0.26825054     0.42800
H1568       H  0.70893817  0.12595955  0.23837566     0.37600
H1569       H  0.62338831  0.22036452  0.25987188     0.43700
H1570       H  0.62288597  0.28924122  0.27576706     0.40100
H1571       H  0.86613081  0.17321405  0.26333303     0.45000
H1572       H  0.67241389  0.12413372  0.25327423     0.43700
H1573       H  0.62243315  0.32670094  0.26085143     0.43900
H1574       H  0.81402250  0.37684008  0.25636066     0.44200
C1575       C  0.86111119  0.36536862  0.39484136     0.87100
C1576       C  0.88387927  0.34275464  0.41542289    -0.53100
C1577       C  0.90467529  0.36264486  0.43323808     0.10100
C1578       C  0.90049153  0.40310086  0.42859307     0.21000
C1579       C  0.84067044  0.39067933  0.41493142    -0.53800
C1580       C  0.86138720  0.41067459  0.43265188     0.10200
C1581       C  0.88654208  0.38918325  0.37804129    -0.53400
C1582       C  0.90722895  0.40897947  0.39570942     0.10700
H1583       H  0.88413467  0.31391384  0.41543046     0.15200
H1584       H  0.91742070  0.41939363  0.44297133     0.01000
H1585       H  0.81256115  0.39243204  0.41527759     0.15500
H1586       H  0.88754540  0.39092851  0.35435687     0.15300
C1587       C  0.86172936  0.13545380  0.39473682     0.87100
C1588       C  0.88704955  0.11155146  0.37789243    -0.53100
C1589       C  0.90763734  0.09159434  0.39553818     0.10100
C1590       C  0.90090427  0.09743650  0.42843389     0.21000
C1591       C  0.84114745  0.11020587  0.41475938    -0.53800
C1592       C  0.86175159  0.09007561  0.43246081     0.10200
C1593       C  0.88458083  0.15789513  0.41536605    -0.53400
C1594       C  0.90528119  0.13786310  0.43315746     0.10700
H1595       H  0.88803462  0.10986112  0.35420477     0.15200
H1596       H  0.91773583  0.08101551  0.44279961     0.01000
H1597       H  0.81302688  0.10862613  0.41511270     0.15500
H1598       H  0.88495623  0.18673436  0.41541713     0.15300
C1599       C  0.62685646  0.36466329  0.39474868     0.87100
C1600       C  0.64739832  0.38989838  0.41481195    -0.53100
C1601       C  0.62675392  0.40994102  0.43254835     0.10100
C1602       C  0.58762088  0.40252732  0.42852378     0.21000
C1603       C  0.60404999  0.34212916  0.41537333    -0.53800
C1604       C  0.58332755  0.36208338  0.43321230     0.10200
C1605       C  0.60148957  0.38857069  0.37796578    -0.53400
C1606       C  0.58088252  0.40844841  0.39563674     0.10700
H1607       H  0.67551473  0.39154251  0.41515943     0.15200
H1608       H  0.57076720  0.41889144  0.44291124     0.01000
H1609       H  0.60372058  0.31329067  0.41538854     0.15500
H1610       H  0.60049777  0.39033902  0.35428195     0.15300
C1611       C  0.62753899  0.13459381  0.39478374     0.87100
C1612       C  0.60200479  0.11091173  0.37795697    -0.53100
C1613       C  0.58127671  0.09111495  0.39560827     0.10100
C1614       C  0.58807546  0.09687662  0.42849161     0.21000
C1615       C  0.60487957  0.15720134  0.41546016    -0.53800
C1616       C  0.58403111  0.13732752  0.43325517     0.10200
C1617       C  0.64792522  0.10914374  0.41477469    -0.53400
C1618       C  0.62715954  0.08917097  0.43245935     0.10700
H1619       H  0.60100825  0.10920708  0.35427194     0.15200
H1620       H  0.57113290  0.08057857  0.44286078     0.01000
H1621       H  0.60471416  0.18604111  0.41552224     0.15500
H1622       H  0.67603185  0.10732606  0.41512961     0.15300
N1623       N  0.99415608  0.44583438  0.38647947    -0.36000
N1624       N  0.54668730  0.99986905  0.38306320    -0.56500
N1625       N  0.99437411  0.05425870  0.38652292    -0.36000
N1626       N  0.94185298  0.00018844  0.38315463    -0.56500
C1627       C  0.52212503  0.42656696  0.37868182     0.27600
C1628       C  0.96606440  0.42673896  0.37872109     0.27600
C1629       C  0.52246064  0.07327914  0.37861378     0.27600
C1630       C  0.96640062  0.07344600  0.37858171     0.27600
C1631       C  0.56774086  0.47126050  0.38322872     0.36200
C1632       C  0.56786332  0.02837503  0.38325376     0.36200
C1633       C  0.92068117  0.47168193  0.38330893     0.36200
C1634       C  0.92079209  0.02878706  0.38321804     0.36200
C1635       C  0.51187127  0.39580888  0.36467493    -0.21300
C1636       C  0.97611249  0.39592071  0.36469839    -0.21300
C1637       C  0.51240570  0.10394776  0.36436561    -0.21200
C1638       C  0.97664766  0.10405252  0.36434123    -0.21200
C1639       C  0.60188721  0.48152005  0.38067434    -0.22300
C1640       C  0.60196499  0.01796279  0.38069614    -0.22300
C1641       C  0.88659123  0.48208411  0.38063086    -0.22300
C1642       C  0.88666102  0.01852400  0.38057335    -0.22300
C1643       C  0.55648229  0.43593247  0.38473919    -0.17700
C1644       C  0.93177366  0.43630904  0.38482209    -0.17700
C1645       C  0.93203614  0.06411187  0.38464098    -0.17700
C1646       C  0.55676062  0.06375164  0.38471961    -0.17700
H1647       H  0.52846150  0.37567081  0.35522817     0.15300
H1648       H  0.95938542  0.37588816  0.35527307     0.15300
H1649       H  0.52912881  0.12388954  0.35479928     0.15300
H1650       H  0.96005309  0.12409182  0.35475053     0.15300
H1651       H  0.62399921  0.46432369  0.37754001     0.13500
H1652       H  0.62414829  0.03506529  0.37757431     0.13500
H1653       H  0.86443124  0.46497483  0.37742483     0.13500
H1654       H  0.86456612  0.03571471  0.37732388     0.13500
H1655       H  0.99422857  0.46827273  0.39980463     0.26800
H1656       H  0.99431458  0.03191977  0.39997324     0.26800
C1657       C  0.86193050  0.36419758  0.11945032     0.87100
C1658       C  0.84069137  0.38975613  0.10013916    -0.53100
C1659       C  0.86084798  0.41064213  0.08262342     0.10100
C1660       C  0.90006318  0.40360219  0.08603360     0.21000
C1661       C  0.88463771  0.34261511  0.09813938    -0.53800
C1662       C  0.90473522  0.36335773  0.08045103     0.10200
C1663       C  0.88720515  0.38796534  0.13644165    -0.53400
C1664       C  0.90714857  0.40872315  0.11893499     0.10700
H1665       H  0.81255206  0.39096930  0.10008508     0.15200
H1666       H  0.91649731  0.42058828  0.07178509     0.01000
H1667       H  0.88536440  0.31379026  0.09755740     0.15500
H1668       H  0.88868800  0.38891222  0.16013956     0.15300
C1669       C  0.62579087  0.36342598  0.11941176     0.87100
C1670       C  0.60051316  0.38727666  0.13635655    -0.53100
C1671       C  0.58061905  0.40806152  0.11880214     0.10100
C1672       C  0.58773527  0.40284913  0.08591160     0.21000
C1673       C  0.60305278  0.34184820  0.09810830    -0.53800
C1674       C  0.58298992  0.36259800  0.08038430     0.10200
C1675       C  0.64705723  0.38891298  0.10008370    -0.53400
C1676       C  0.62697192  0.40979191  0.08252614     0.10700
H1677       H  0.59903739  0.38829959  0.16005075     0.15200
H1678       H  0.57135758  0.41984475  0.07162052     0.01000
H1679       H  0.60227051  0.31302515  0.09756528     0.15500
H1680       H  0.67519829  0.39007339  0.10003894     0.15300
N1681       N  0.94063820  0.35098005  0.00652022    -0.36000
N1682       N  0.99381504  0.34802168  0.05078947    -0.56500
N1683       N  0.54714468  0.35030529  0.00649079    -0.36000
N1684       N  0.99395231  0.34503904  0.46218176    -0.56500
C1685       C  0.92165264  0.34243239  0.03032906     0.27600
C1686       C  0.92187849  0.34125485  0.48291610     0.27600
C1687       C  0.56595892  0.34149205  0.03032678     0.27600
C1688       C  0.56592197  0.34055327  0.48289607     0.27600
C1689       C  0.96584566  0.34684904  0.06855370     0.36200
C1690       C  0.52177945  0.34652808  0.06853925     0.36200
C1691       C  0.96593616  0.34550394  0.44440277     0.36200
C1692       C  0.52196312  0.34532722  0.44438715     0.36200
C1693       C  0.89141512  0.32562174  0.02188215    -0.21300
C1694       C  0.89153799  0.32491967  0.49171871    -0.21300
C1695       C  0.59608250  0.32443741  0.02190731    -0.21200
C1696       C  0.59607679  0.32387642  0.49173313    -0.21200
C1697       C  0.97597921  0.34111091  0.09700614    -0.22300
C1698       C  0.51160040  0.34092242  0.09699895    -0.22300
C1699       C  0.97611044  0.34258405  0.41564729    -0.22300
C1700       C  0.51176029  0.34248289  0.41563634    -0.22300
C1701       C  0.93117205  0.34950300  0.05938451    -0.17700
C1702       C  0.93122319  0.34782824  0.45375089    -0.17700
C1703       C  0.55669377  0.34735567  0.45372602    -0.17700
C1704       C  0.55648182  0.34876591  0.05936612    -0.17700
H1705       H  0.87162246  0.31465843  0.03601692     0.15300
H1706       H  0.87175895  0.31350687  0.47781225     0.15300
H1707       H  0.61576223  0.31330228  0.03606621     0.15300
H1708       H  0.61582743  0.31237244  0.47784797     0.15300
H1709       H  0.95923337  0.33553279  0.11536107     0.13500
H1710       H  0.52830099  0.33517835  0.11535007     0.13500
H1711       H  0.95935806  0.33920244  0.39693519     0.13500
H1712       H  0.52848279  0.33900130  0.39691666     0.13500
H1713       H  0.96291654  0.36662991  0.00628035     0.26800
H1714       H  0.52502440  0.36618926  0.00625484     0.26800
C1715       C  0.62672013  0.13572827  0.11946582     0.87100
C1716       C  0.64781278  0.11030019  0.09996650    -0.53100
C1717       C  0.62755959  0.08962804  0.08238900     0.10100
C1718       C  0.58837501  0.09669996  0.08590154     0.21000
C1719       C  0.60398409  0.15755377  0.09829259    -0.53800
C1720       C  0.58378905  0.13700126  0.08050619     0.10200
C1721       C  0.60141734  0.11184179  0.13637338    -0.53400
C1722       C  0.58136692  0.09125309  0.11878966     0.10700
H1723       H  0.67594810  0.10897797  0.09986313     0.15200
H1724       H  0.57188665  0.07986244  0.07158382     0.01000
H1725       H  0.60336535  0.18638413  0.09783608     0.15500
H1726       H  0.60002934  0.11067091  0.16006743     0.15300
N1727       N  0.94112218  0.50002526  0.12717422    -0.36000
N1728       N  0.99399860  0.44604577  0.13122551    -0.56500
N1729       N  0.54733720  0.99973194  0.12709488    -0.36000
N1730       N  0.99446819  0.05375193  0.13081183    -0.56500
C1731       C  0.92081343  0.47130233  0.13115793     0.27600
C1732       C  0.92102773  0.02894280  0.13094195     0.27600
C1733       C  0.56741285  0.47080505  0.13096171     0.27600
C1734       C  0.56767717  0.02849005  0.13090922     0.27600
C1735       C  0.96599398  0.42573002  0.13652187     0.36200
C1736       C  0.52189137  0.42554126  0.13643514     0.36200
C1737       C  0.96655583  0.07418705  0.13614035     0.36200
C1738       C  0.52246250  0.07404845  0.13621319     0.36200
C1739       C  0.88759150  0.48196564  0.13818477    -0.21300
C1740       C  0.88772942  0.01860199  0.13805181    -0.21300
C1741       C  0.60073851  0.48117150  0.13793946    -0.21200
C1742       C  0.60090002  0.01781684  0.13792799    -0.21200
C1743       C  0.97598940  0.39325877  0.14770007    -0.22300
C1744       C  0.51171547  0.39313855  0.14764573    -0.22300
C1745       C  0.97670609  0.10651066  0.14749705    -0.22300
C1746       C  0.51243238  0.10642475  0.14754041    -0.22300
C1747       C  0.93183103  0.43578218  0.12995704    -0.17700
C1748       C  0.93232897  0.06436450  0.12953499    -0.17700
C1749       C  0.55665962  0.06405025  0.12968584    -0.17700
C1750       C  0.55610476  0.43535240  0.12976079    -0.17700
H1751       H  0.86612672  0.46503807  0.14430688     0.15300
H1752       H  0.86639460  0.03575140  0.14406994     0.15300
H1753       H  0.62207921  0.46403631  0.14398074     0.15300
H1754       H  0.62238168  0.03474879  0.14398649     0.15300
H1755       H  0.95925774  0.37213298  0.15530284     0.13500
H1756       H  0.52833308  0.37189651  0.15520474     0.13500
H1757       H  0.96007005  0.12766325  0.15518877     0.13500
H1758       H  0.52914446  0.12749873  0.15526137     0.13500
H1759       H  0.96599068  0.49990356  0.11875552     0.26800
H1760       H  0.52243321  0.99980003  0.11875331     0.26800
N1761       N  0.63903944  0.99965049  0.05235500    -0.36000
N1762       N  0.64242975  0.05345554  0.00760140    -0.56500
N1763       N  0.63733748  0.99953477  0.46283933    -0.36000
N1764       N  0.64237443  0.44571287  0.00768423    -0.56500
C1765       C  0.64712125  0.02851121  0.06853534     0.27600
C1766       C  0.64697947  0.47078862  0.06859364     0.27600
C1767       C  0.64702806  0.02831501  0.44720119     0.27600
C1768       C  0.64691995  0.47069087  0.44724130     0.27600
C1769       C  0.64271269  0.07512753  0.03109357     0.36200
C1770       C  0.64198441  0.07507238  0.48406472     0.36200
C1771       C  0.64242478  0.42410198  0.03122962     0.36200
C1772       C  0.64171035  0.42403686  0.48418447     0.36200
C1773       C  0.66152868  0.01798840  0.09479193    -0.21300
C1774       C  0.66144032  0.48130831  0.09482958    -0.21300
C1775       C  0.66435885  0.01777689  0.42224237    -0.21200
C1776       C  0.66428420  0.48111452  0.42226522    -0.18700
C1777       C  0.64568964  0.11005593  0.02246861    -0.22300
C1778       C  0.64522655  0.11001367  0.49250412    -0.22300
C1779       C  0.64507331  0.38912321  0.02267169    -0.22300
C1780       C  0.64462900  0.38909332  0.49270305    -0.22300
C1781       C  0.64095740  0.06395570  0.06031517    -0.17700
C1782       C  0.64061432  0.43535601  0.06043658    -0.17700
C1783       C  0.63986092  0.43534955  0.45503174    -0.17700
C1784       C  0.64011333  0.06370188  0.45494546    -0.17700
H1785       H  0.67138122  0.03501112  0.11193507     0.15300
H1786       H  0.67121353  0.46428414  0.11200900     0.15300
H1787       H  0.67604124  0.03476638  0.40590399     0.15300
H1788       H  0.67589163  0.46404928  0.40594667     0.15300
H1789       H  0.64959664  0.13277274  0.03649824     0.13500
H1790       H  0.64887703  0.13264418  0.47832936     0.13500
H1791       H  0.64869800  0.36639502  0.03675041     0.13500
H1792       H  0.64805361  0.36639502  0.47857273     0.13500
H1793       H  0.62462409  0.99965555  0.03312941     0.26800
H1794       H  0.62134146  0.99957985  0.48120170     0.26800
N1795       N  0.94140472  0.14951957  0.00646182    -0.36000
N1796       N  0.99471404  0.15230436  0.05077495    -0.56500
N1797       N  0.54795115  0.14941249  0.00654272    -0.36000
N1798       N  0.99468545  0.15498891  0.46213754    -0.56500
C1799       C  0.92251679  0.15824235  0.03028204     0.27600
C1800       C  0.92265280  0.15926317  0.48284373     0.27600
C1801       C  0.56688215  0.15811286  0.03035190     0.27600
C1802       C  0.56673396  0.15900839  0.48290456     0.27600
C1803       C  0.96673140  0.15352877  0.06852491     0.36200
C1804       C  0.52267123  0.15345364  0.06856627     0.36200
C1805       C  0.96667863  0.15451538  0.44433662     0.36200
C1806       C  0.52271904  0.15434540  0.44437387     0.36200
C1807       C  0.89234796  0.17518789  0.02182700    -0.21300
C1808       C  0.89241430  0.17580173  0.49165306    -0.21300
C1809       C  0.59709839  0.17493786  0.02186089    -0.21200
C1810       C  0.59702806  0.17545992  0.49168343    -0.21200
C1811       C  0.97687903  0.15894327  0.09701383    -0.22300
C1812       C  0.51249243  0.15888720  0.09704117    -0.22300
C1813       C  0.97690524  0.15706729  0.41556893    -0.22300
C1814       C  0.51255673  0.15695403  0.41559306    -0.22300
C1815       C  0.93203258  0.15115339  0.05935372    -0.17700
C1816       C  0.93193282  0.15251701  0.45367533    -0.17700
C1817       C  0.55744239  0.15217309  0.45374823    -0.17700
C1818       C  0.55738028  0.15102877  0.05943410    -0.17700
H1819       H  0.87263837  0.18629445  0.03596699     0.15300
H1820       H  0.87267096  0.18729611  0.47775024     0.15300
H1821       H  0.61687802  0.18596203  0.03597459     0.15300
H1822       H  0.61683149  0.18679474  0.47775531     0.15300
H1823       H  0.96015353  0.16446331  0.11539029     0.13500
H1824       H  0.52920275  0.16435179  0.11544011     0.13500
H1825       H  0.96019313  0.16036762  0.39682040     0.13500
H1826       H  0.52932301  0.16014936  0.39686702     0.13500
H1827       H  0.96360305  0.13374879  0.00624798     0.26800
H1828       H  0.52571301  0.13370362  0.00633946     0.26800
C1829       C  0.86285924  0.13653374  0.11955089     0.87100
C1830       C  0.88570025  0.15813112  0.09832429    -0.53100
C1831       C  0.90556119  0.13737680  0.08043949     0.10100
C1832       C  0.90060198  0.09713370  0.08581226     0.21000
C1833       C  0.84138753  0.11135729  0.10011397    -0.53800
C1834       C  0.86132342  0.09050577  0.08241545     0.10200
C1835       C  0.88799042  0.11239253  0.13634905    -0.53400
C1836       C  0.90774710  0.09164929  0.11868136     0.10700
H1837       H  0.88665614  0.18695196  0.09791710     0.15200
H1838       H  0.91685404  0.08013162  0.07143278     0.01000
H1839       H  0.81324094  0.11033087  0.10014255     0.15500
H1840       H  0.88953309  0.11121426  0.16003790     0.15300
N1841       N  0.84928104  0.50064116  0.05249357    -0.36000
N1842       N  0.84590713  0.44673182  0.00776577    -0.56500
N1843       N  0.85109968  0.50047676  0.46284603    -0.36000
N1844       N  0.84594324  0.05444377  0.00763325    -0.56500
C1845       C  0.84129320  0.47181861  0.06876281     0.27600
C1846       C  0.84133064  0.02954327  0.06866409     0.27600
C1847       C  0.84152765  0.47164220  0.44722334     0.27600
C1848       C  0.84159660  0.02929087  0.44716357     0.27600
C1849       C  0.84551038  0.42513747  0.03133028     0.36200
C1850       C  0.84637221  0.42502768  0.48426749     0.36200
C1851       C  0.84567861  0.07611688  0.03114118     0.36200
C1852       C  0.84651761  0.07605252  0.48407611     0.36200
C1853       C  0.82696672  0.48241383  0.09503392    -0.21300
C1854       C  0.82699606  0.01909645  0.09497317    -0.21300
C1855       C  0.82432549  0.48212015  0.42217701    -0.21200
C1856       C  0.82437644  0.01879218  0.42213501    -0.21200
C1857       C  0.84246815  0.39019550  0.02277513    -0.22300
C1858       C  0.84300945  0.39013524  0.49280836    -0.22300
C1859       C  0.84280263  0.11105112  0.02249714    -0.22300
C1860       C  0.84333759  0.11100452  0.49252079    -0.22300
C1861       C  0.84735803  0.43634194  0.06055994    -0.17700
C1862       C  0.84754714  0.06495794  0.06038865    -0.17700
C1863       C  0.84857351  0.06466935  0.45493926    -0.17700
C1864       C  0.84838916  0.43626148  0.45508675    -0.17700
H1865       H  0.81715700  0.46543878  0.11223157     0.15300
H1866       H  0.81723723  0.03617051  0.11212184     0.15300
H1867       H  0.81272180  0.46508711  0.40583332     0.15300
H1868       H  0.81282672  0.03581312  0.40574886     0.15300
H1869       H  0.83854219  0.36751592  0.03685124     0.13500
H1870       H  0.83936266  0.36745685  0.47869470     0.13500
H1871       H  0.83901747  0.13379854  0.03652044     0.13500
H1872       H  0.83986322  0.13366417  0.47834360     0.13500
H1873       H  0.86360820  0.50059548  0.03322364     0.26800
H1874       H  0.86697447  0.50049007  0.48128132     0.26800
C1875       C  0.83916436  0.34480277  0.37488292    -0.12600
C1876       C  0.82258702  0.32977221  0.35628332    -0.14200
C1877       C  0.83988468  0.15622073  0.37487215    -0.12600
C1878       C  0.82335797  0.17144779  0.35636629    -0.14200
C1879       C  0.66518466  0.32895299  0.35611916    -0.12600
C1880       C  0.64870344  0.34403166  0.37475456    -0.14200
C1881       C  0.82502796  0.32688548  0.15787531    -0.12600
C1882       C  0.84091918  0.34253834  0.13924367    -0.14200
C1883       C  0.64954253  0.15519464  0.37488018    -0.12600
C1884       C  0.66612533  0.17036124  0.35634960    -0.14200
C1885       C  0.66327803  0.32625892  0.15763359    -0.12600
C1886       C  0.64695670  0.34180121  0.13917328    -0.14200
C1887       C  0.82582098  0.17360836  0.15807751    -0.12600
C1888       C  0.84193036  0.15810817  0.13948597    -0.14200
C1889       C  0.64803607  0.15709448  0.13930730    -0.12600
C1890       C  0.66432203  0.17250756  0.15785958    -0.14200
O1891       O  0.67480722  0.18135238  0.70741880    -0.74700
O1892       O  0.70642530  0.21204766  0.67356313    -0.53600
C1893       C  0.68296060  0.18967463  0.68098556     0.79100
O1894       O  0.67582781  0.32017891  0.80653854    -0.59300
O1895       O  0.70607867  0.28807021  0.84040214    -0.52300
C1896       C  0.68355142  0.31144848  0.83297943     0.71100
O1897       O  0.67353222  0.31728016  0.70718747    -0.73800
O1898       O  0.70606723  0.28746014  0.67342575    -0.54400
C1899       C  0.68205817  0.30927135  0.68077876     0.77100
O1900       O  0.67642527  0.17943366  0.80676574    -0.59000
O1901       O  0.70709388  0.21120376  0.84055854    -0.52100
C1902       C  0.68441517  0.18794828  0.83319214     0.73700
Zr1903     Zr  0.69339637  0.19652970  0.75709044     2.54700
O1904       O  0.63030648  0.19513495  0.75807584    -0.79500
O1905       O  0.69659880  0.13193925  0.75669879    -0.92900
Zr1906     Zr  0.69230605  0.30247739  0.75686977     2.64700
O1907       O  0.62915468  0.30165868  0.75743881    -0.97900
O1908       O  0.69399810  0.36707662  0.75525322    -0.80000
O1909       O  0.69212711  0.24942246  0.72888966    -0.83300
O1910       O  0.69192825  0.24957201  0.78503535    -2.18000
O1911       O  0.81319173  0.18046554  0.80681063    -0.66700
O1912       O  0.78216624  0.21196411  0.84055784    -0.51300
C1913       C  0.80505330  0.18892345  0.83321018     0.72100
O1914       O  0.81460451  0.31820377  0.70744036    -0.59600
O1915       O  0.78297523  0.28743826  0.67363760    -0.51600
C1916       C  0.80649350  0.30974955  0.68103266     0.73900
O1917       O  0.81217451  0.32096194  0.80668365    -0.71000
O1918       O  0.78166090  0.28896003  0.84045715    -0.49700
C1919       C  0.80426093  0.31230509  0.83310149     0.75300
O1920       O  0.81566830  0.18283442  0.70760473    -0.66300
O1921       O  0.78298804  0.21230728  0.67372710    -0.53500
C1922       C  0.80708042  0.19065286  0.68117455     0.73600
Zr1923     Zr  0.79650373  0.19768487  0.75711997     2.77500
O1924       O  0.85967963  0.19766334  0.75749245    -0.97100
O1925       O  0.79342490  0.13314516  0.75555608    -0.77900
Zr1926     Zr  0.79534379  0.30365270  0.75702178     2.70100
O1927       O  0.85839996  0.30650213  0.75825771    -0.79200
O1928       O  0.78990796  0.36800754  0.75478337    -0.98200
Zr1929     Zr  0.74448172  0.24995074  0.70141645     2.21500
Zr1930     Zr  0.74430101  0.25012201  0.81267098     2.11100
O1931       O  0.79676573  0.25069775  0.78513071    -2.46900
O1932       O  0.79671967  0.25063333  0.72902652    -0.78900
O1933       O  0.74494127  0.19627699  0.78545247    -0.71100
O1934       O  0.74389288  0.30392930  0.72859120    -2.32100
O1935       O  0.74499584  0.19613015  0.72878959    -2.28300
O1936       O  0.74377820  0.30392644  0.78534168    -0.72900
H1937       H  0.67186904  0.24940760  0.79766430     0.79100
H1938       H  0.74374756  0.32431295  0.71580971     0.80200
H1939       H  0.81679039  0.25093106  0.79778590     0.82400
H1940       H  0.74526008  0.17570044  0.71601917     0.80000
H1941       H  0.71152313  0.37375122  0.77007914     0.43100
H1942       H  0.77896352  0.37469789  0.77356359     0.42000
H1943       H  0.86601603  0.28279218  0.75143436     0.41700
H1944       H  0.86617048  0.21259146  0.77444310     0.39600
H1945       H  0.77348568  0.12708744  0.76824911     0.42800
H1946       H  0.70893744  0.12595943  0.73837546     0.37600
H1947       H  0.62338843  0.22036495  0.75987042     0.43700
H1948       H  0.62288611  0.28924127  0.77576719     0.40100
H1949       H  0.86613084  0.17321357  0.76333197     0.45000
H1950       H  0.67241334  0.12413386  0.75327430     0.43700
H1951       H  0.62243328  0.32670090  0.76085139     0.43900
H1952       H  0.81402212  0.37684010  0.75636136     0.44200
C1953       C  0.86111123  0.36536867  0.89484135     0.87100
C1954       C  0.88387928  0.34275473  0.91542287    -0.53100
C1955       C  0.90467533  0.36264494  0.93323805     0.10100
C1956       C  0.90049160  0.40310094  0.92859304     0.21000
C1957       C  0.84067047  0.39067937  0.91493142    -0.53800
C1958       C  0.86138724  0.41067462  0.93265186     0.10200
C1959       C  0.88654211  0.38918328  0.87804126    -0.53400
C1960       C  0.90722899  0.40897953  0.89570937     0.10700
H1961       H  0.88413462  0.31391392  0.91543047     0.15200
H1962       H  0.91742078  0.41939372  0.94297128     0.01000
H1963       H  0.81256118  0.39243207  0.91527767     0.15500
H1964       H  0.88754543  0.39092850  0.85435684     0.15300
C1965       C  0.86172928  0.13545378  0.89473688     0.87100
C1966       C  0.88704950  0.11155146  0.87789250    -0.53100
C1967       C  0.90763735  0.09159436  0.89553823     0.10100
C1968       C  0.90090426  0.09743651  0.92843394     0.21000
C1969       C  0.84114731  0.11020587  0.91475947    -0.53800
C1970       C  0.86175154  0.09007561  0.93246086     0.10200
C1971       C  0.88458078  0.15789513  0.91536608    -0.53400
C1972       C  0.90528117  0.13786312  0.93315748     0.10700
H1973       H  0.88803452  0.10986112  0.85420483     0.15200
H1974       H  0.91773582  0.08101554  0.94279966     0.01000
H1975       H  0.81302674  0.10862618  0.91511285     0.15500
H1976       H  0.88495618  0.18673436  0.91541713     0.15300
C1977       C  0.62685646  0.36466326  0.89474867     0.87100
C1978       C  0.64739832  0.38989839  0.91481193    -0.53100
C1979       C  0.62675393  0.40994099  0.93254836     0.10100
C1980       C  0.58762089  0.40252732  0.92852377     0.21000
C1981       C  0.60405001  0.34212905  0.91537334    -0.53800
C1982       C  0.58332756  0.36208334  0.93321229     0.10200
C1983       C  0.60148957  0.38857068  0.87796576    -0.53400
C1984       C  0.58088252  0.40844842  0.89563671     0.10700
H1985       H  0.67551473  0.39154254  0.91515938     0.15200
H1986       H  0.57076721  0.41889142  0.94291125     0.01000
H1987       H  0.60372057  0.31329056  0.91538856     0.15500
H1988       H  0.60049778  0.39033897  0.85428193     0.15300
C1989       C  0.62753901  0.13459382  0.89478373     0.87100
C1990       C  0.60200484  0.11091167  0.87795697    -0.53100
C1991       C  0.58127674  0.09111491  0.89560828     0.10100
C1992       C  0.58807544  0.09687662  0.92849163     0.21000
C1993       C  0.60487956  0.15720147  0.91546007    -0.53800
C1994       C  0.58403108  0.13732759  0.93325508     0.10200
C1995       C  0.64792523  0.10914377  0.91477474    -0.53400
C1996       C  0.62715954  0.08917101  0.93245941     0.10700
H1997       H  0.60100829  0.10920700  0.85427193     0.15200
H1998       H  0.57113286  0.08057860  0.94286081     0.01000
H1999       H  0.60471415  0.18604125  0.91552211     0.15500
H2000       H  0.67603186  0.10732608  0.91512968     0.15300
N2001       N  0.99415610  0.44583436  0.88647926    -0.36000
N2002       N  0.54668735  0.99986898  0.88306323    -0.56500
N2003       N  0.99437416  0.05425858  0.88652297    -0.36000
N2004       N  0.94185300  0.00018847  0.88315484    -0.56500
C2005       C  0.52212503  0.42656698  0.87868176     0.27600
C2006       C  0.96606441  0.42673905  0.87872091     0.27600
C2007       C  0.52246066  0.07327907  0.87861373     0.27600
C2008       C  0.96640065  0.07344602  0.87858174     0.27600
C2009       C  0.56774088  0.47126049  0.88322861     0.36200
C2010       C  0.56786336  0.02837498  0.88325378     0.36200
C2011       C  0.92068120  0.47168197  0.88330882     0.36200
C2012       C  0.92079214  0.02878709  0.88321817     0.36200
C2013       C  0.51187127  0.39580891  0.86467489    -0.21300
C2014       C  0.97611250  0.39592081  0.86469829    -0.21300
C2015       C  0.51240572  0.10394776  0.86436562    -0.21200
C2016       C  0.97664767  0.10405257  0.86434126    -0.21200
C2017       C  0.60188722  0.48152006  0.88067416    -0.22300
C2018       C  0.60196502  0.01796276  0.88069603    -0.22300
C2019       C  0.88659128  0.48208416  0.88063085    -0.22300
C2020       C  0.88666111  0.01852402  0.88057342    -0.22300
C2021       C  0.55648230  0.43593247  0.88473912    -0.17700
C2022       C  0.93177367  0.43630909  0.88482196    -0.17700
C2023       C  0.93203616  0.06411190  0.88464105    -0.17700
C2024       C  0.55676064  0.06375159  0.88471963    -0.17700
H2025       H  0.52846150  0.37567082  0.85522814     0.15300
H2026       H  0.95938545  0.37588823  0.85527301     0.15300
H2027       H  0.52912882  0.12388960  0.85479934     0.15300
H2028       H  0.96005303  0.12409184  0.85475057     0.15300
H2029       H  0.62399919  0.46432365  0.87753976     0.13500
H2030       H  0.62414829  0.03506528  0.87757419     0.13500
H2031       H  0.86443128  0.46497488  0.87742491     0.13500
H2032       H  0.86456621  0.03571475  0.87732392     0.13500
H2033       H  0.99422859  0.46827277  0.89980443     0.26800
H2034       H  0.99431466  0.03191973  0.89997323     0.26800
C2035       C  0.86193052  0.36419762  0.61945030     0.87100
C2036       C  0.84069139  0.38975610  0.60013916    -0.53100
C2037       C  0.86084800  0.41064208  0.58262339     0.10100
C2038       C  0.90006324  0.40360221  0.58603355     0.21000
C2039       C  0.88463775  0.34261520  0.59813943    -0.53800
C2040       C  0.90473527  0.36335774  0.58045104     0.10200
C2041       C  0.88720512  0.38796541  0.63644156    -0.53400
C2042       C  0.90714859  0.40872322  0.61893494     0.10700
H2043       H  0.81255208  0.39096930  0.60008510     0.15200
H2044       H  0.91649734  0.42058826  0.57178501     0.01000
H2045       H  0.88536442  0.31379033  0.59755749     0.15500
H2046       H  0.88868789  0.38891237  0.66013947     0.15300
C2047       C  0.62579095  0.36342597  0.61941177     0.87100
C2048       C  0.60051323  0.38727663  0.63635649    -0.53100
C2049       C  0.58061908  0.40806149  0.61880213     0.10100
C2050       C  0.58773530  0.40284908  0.58591163     0.21000
C2051       C  0.60305284  0.34184815  0.59810837    -0.53800
C2052       C  0.58298997  0.36259794  0.58038435     0.10200
C2053       C  0.64705727  0.38891298  0.60008372    -0.53400
C2054       C  0.62697195  0.40979190  0.58252616     0.10700
H2055       H  0.59903746  0.38829955  0.66005069     0.15200
H2056       H  0.57135762  0.41984467  0.57162053     0.01000
H2057       H  0.60227056  0.31302509  0.59756538     0.15500
H2058       H  0.67519834  0.39007342  0.60003901     0.15300
N2059       N  0.94063827  0.35098003  0.50652029    -0.36000
N2060       N  0.99381506  0.34802162  0.55078950    -0.56500
N2061       N  0.54714469  0.35030526  0.50649086    -0.36000
N2062       N  0.99395229  0.34503902  0.96218171    -0.56500
C2063       C  0.92165267  0.34243235  0.53032910     0.27600
C2064       C  0.92187843  0.34125483  0.98291604     0.27600
C2065       C  0.56595894  0.34149199  0.53032684     0.27600
C2066       C  0.56592194  0.34055330  0.98289603     0.27600
C2067       C  0.96584567  0.34684898  0.56855374     0.36200
C2068       C  0.52177950  0.34652808  0.56853929     0.36200
C2069       C  0.96593615  0.34550406  0.94440270     0.36200
C2070       C  0.52196311  0.34532716  0.94438713     0.36200
C2071       C  0.89141516  0.32562174  0.52188219    -0.21300
C2072       C  0.89153790  0.32491960  0.99171864    -0.21300
C2073       C  0.59608251  0.32443732  0.52190737    -0.21200
C2074       C  0.59607677  0.32387655  0.99173309    -0.21200
C2075       C  0.97597917  0.34111091  0.59700623    -0.22300
C2076       C  0.51160047  0.34092252  0.59699897    -0.22300
C2077       C  0.97611042  0.34258423  0.91564724    -0.22300
C2078       C  0.51176026  0.34248293  0.91563636    -0.22300
C2079       C  0.93117207  0.34950293  0.55938454    -0.17700
C2080       C  0.93122317  0.34782827  0.95375083    -0.17700
C2081       C  0.55669376  0.34735566  0.95372599    -0.17700
C2082       C  0.55648186  0.34876586  0.55936618    -0.17700
H2083       H  0.87162245  0.31465841  0.53601693     0.15300
H2084       H  0.87175888  0.31350675  0.97781217     0.15300
H2085       H  0.61576221  0.31330221  0.53606630     0.15300
H2086       H  0.61582744  0.31237263  0.97784790     0.15300
H2087       H  0.95923332  0.33553280  0.61536114     0.13500
H2088       H  0.52830105  0.33517853  0.61535011     0.13500
H2089       H  0.95935811  0.33920265  0.89693509     0.13500
H2090       H  0.52848278  0.33900132  0.89691670     0.13500
H2091       H  0.96291660  0.36662988  0.50628051     0.26800
H2092       H  0.52502442  0.36618923  0.50625494     0.26800
C2093       C  0.62672015  0.13572824  0.61946582     0.87100
C2094       C  0.64781280  0.11030021  0.59996647    -0.53100
C2095       C  0.62755960  0.08962803  0.58238899     0.10100
C2096       C  0.58837502  0.09669993  0.58590158     0.21000
C2097       C  0.60398411  0.15755363  0.59829259    -0.53800
C2098       C  0.58378904  0.13700118  0.58050622     0.10200
C2099       C  0.60141738  0.11184180  0.63637341    -0.53400
C2100       C  0.58136695  0.09125310  0.61878971     0.10700
H2101       H  0.67594812  0.10897803  0.59986303     0.15200
H2102       H  0.57188665  0.07986241  0.57158390     0.01000
H2103       H  0.60336540  0.18638400  0.59783603     0.15500
H2104       H  0.60002939  0.11067092  0.66006746     0.15300
N2105       N  0.94112224  0.50002534  0.62717422    -0.36000
N2106       N  0.99399864  0.44604573  0.63122543    -0.56500
N2107       N  0.54733714  0.99973204  0.62709493    -0.36000
N2108       N  0.99446822  0.05375188  0.63081185    -0.56500
C2109       C  0.92081342  0.47130239  0.63115793     0.27600
C2110       C  0.92102774  0.02894275  0.63094198     0.27600
C2111       C  0.56741288  0.47080503  0.63096167     0.27600
C2112       C  0.56767717  0.02849012  0.63090929     0.27600
C2113       C  0.96599401  0.42573009  0.63652189     0.36200
C2114       C  0.52189140  0.42554124  0.63643518     0.36200
C2115       C  0.96655585  0.07418701  0.63614029     0.36200
C2116       C  0.52246251  0.07404843  0.63621326     0.36200
C2117       C  0.88759142  0.48196568  0.63818473    -0.21300
C2118       C  0.88772945  0.01860196  0.63805192    -0.21300
C2119       C  0.60073851  0.48117151  0.63793935    -0.21200
C2120       C  0.60090003  0.01781689  0.63792809    -0.21200
C2121       C  0.97598944  0.39325889  0.64770012    -0.22300
C2122       C  0.51171545  0.39313856  0.64764579    -0.22300
C2123       C  0.97670608  0.10651058  0.64749702    -0.22300
C2124       C  0.51243236  0.10642473  0.64754043    -0.22300
C2125       C  0.93183105  0.43578224  0.62995704    -0.17700
C2126       C  0.93232899  0.06436445  0.62953494    -0.17700
C2127       C  0.55665964  0.06405028  0.62968591    -0.17700
C2128       C  0.55610481  0.43535236  0.62976082    -0.17700
H2129       H  0.86612663  0.46503811  0.64430677     0.15300
H2130       H  0.86639461  0.03575138  0.64407000     0.15300
H2131       H  0.62207926  0.46403633  0.64398055     0.15300
H2132       H  0.62238165  0.03474889  0.64398660     0.15300
H2133       H  0.95925773  0.37213315  0.65530291     0.13500
H2134       H  0.52833303  0.37189649  0.65520480     0.13500
H2135       H  0.96007004  0.12766318  0.65518872     0.13500
H2136       H  0.52914443  0.12749870  0.65526142     0.13500
H2137       H  0.96599070  0.49990366  0.61875561     0.26800
H2138       H  0.52243318  0.99980016  0.61875332     0.26800
N2139       N  0.63903945  0.99965047  0.55235502    -0.36000
N2140       N  0.64242975  0.05345556  0.50760135    -0.56500
N2141       N  0.63733740  0.99953479  0.96283942    -0.36000
N2142       N  0.64237432  0.44571290  0.50768423    -0.56500
C2143       C  0.64712127  0.02851121  0.56853534     0.27600
C2144       C  0.64697946  0.47078864  0.56859360     0.27600
C2145       C  0.64702806  0.02831501  0.94720122     0.27600
C2146       C  0.64691990  0.47069083  0.94724132     0.27600
C2147       C  0.64271270  0.07512759  0.53109354     0.36200
C2148       C  0.64198441  0.07507237  0.98406477     0.36200
C2149       C  0.64242468  0.42410195  0.53122962     0.36200
C2150       C  0.64171046  0.42403684  0.98418447     0.36200
C2151       C  0.66152863  0.01798838  0.59479197    -0.21300
C2152       C  0.66144032  0.48130835  0.59482950    -0.21300
C2153       C  0.66435878  0.01777687  0.92224237    -0.21200
C2154       C  0.66428398  0.48111451  0.92226517    -0.18700
C2155       C  0.64568965  0.11005600  0.52246860    -0.22300
C2156       C  0.64522657  0.11001366  0.99250413    -0.22300
C2157       C  0.64507327  0.38912309  0.52267176    -0.22300
C2158       C  0.64462906  0.38909337  0.99270305    -0.22300
C2159       C  0.64095741  0.06395570  0.56031515    -0.17700
C2160       C  0.64061429  0.43535602  0.56043658    -0.17700
C2161       C  0.63986096  0.43534951  0.95503176    -0.17700
C2162       C  0.64011332  0.06370188  0.95494550    -0.17700
H2163       H  0.67138121  0.03501108  0.61193510     0.15300
H2164       H  0.67121349  0.46428417  0.61200891     0.15300
H2165       H  0.67604121  0.03476637  0.90590399     0.15300
H2166       H  0.67589130  0.46404927  0.90594656     0.15300
H2167       H  0.64959664  0.13277283  0.53649819     0.13500
H2168       H  0.64887706  0.13264418  0.97832938     0.13500
H2169       H  0.64869801  0.36639495  0.53675051     0.13500
H2170       H  0.64805366  0.36639499  0.97857283     0.13500
H2171       H  0.62462415  0.99965550  0.53312940     0.26800
H2172       H  0.62134141  0.99957992  0.98120173     0.26800
N2173       N  0.94140476  0.14951954  0.50646186    -0.36000
N2174       N  0.99471406  0.15230432  0.55077495    -0.56500
N2175       N  0.54795113  0.14941235  0.50654280    -0.36000
N2176       N  0.99468543  0.15498884  0.96213751    -0.56500
C2177       C  0.92251676  0.15824235  0.53028205     0.27600
C2178       C  0.92265276  0.15926317  0.98284370     0.27600
C2179       C  0.56688218  0.15811285  0.53035197     0.27600
C2180       C  0.56673391  0.15900836  0.98290448     0.27600
C2181       C  0.96673139  0.15352875  0.56852491     0.36200
C2182       C  0.52267126  0.15345369  0.56856633     0.36200
C2183       C  0.96667863  0.15451541  0.94433662     0.36200
C2184       C  0.52271899  0.15434541  0.94437384     0.36200
C2185       C  0.89234791  0.17518790  0.52182705    -0.21300
C2186       C  0.89241426  0.17580171  0.99165304    -0.21300
C2187       C  0.59709838  0.17493798  0.52186097    -0.21200
C2188       C  0.59702802  0.17545979  0.99168337    -0.21200
C2189       C  0.97687895  0.15894327  0.59701389    -0.22300
C2190       C  0.51249247  0.15888734  0.59704121    -0.22300
C2191       C  0.97690531  0.15706743  0.91556897    -0.22300
C2192       C  0.51255665  0.15695418  0.91559308    -0.22300
C2193       C  0.93203258  0.15115340  0.55935372    -0.17700
C2194       C  0.93193279  0.15251706  0.95367530    -0.17700
C2195       C  0.55744236  0.15217311  0.95374814    -0.17700
C2196       C  0.55738029  0.15102875  0.55943416    -0.17700
H2197       H  0.87263832  0.18629443  0.53596705     0.15300
H2198       H  0.87267088  0.18729612  0.97775026     0.15300
H2199       H  0.61687796  0.18596221  0.53597470     0.15300
H2200       H  0.61683145  0.18679459  0.97775524     0.15300
H2201       H  0.96015343  0.16446336  0.61539033     0.13500
H2202       H  0.52920277  0.16435196  0.61544017     0.13500
H2203       H  0.96019323  0.16036782  0.89682040     0.13500
H2204       H  0.52932290  0.16014958  0.89686703     0.13500
H2205       H  0.96360307  0.13374871  0.50624807     0.26800
H2206       H  0.52571307  0.13370346  0.50633955     0.26800
C2207       C  0.86285924  0.13653369  0.61955087     0.87100
C2208       C  0.88570026  0.15813108  0.59832428    -0.53100
C2209       C  0.90556119  0.13737677  0.58043948     0.10100
C2210       C  0.90060200  0.09713366  0.58581224     0.21000
C2211       C  0.84138754  0.11135724  0.60011397    -0.53800
C2212       C  0.86132343  0.09050573  0.58241544     0.10200
C2213       C  0.88799043  0.11239248  0.63634895    -0.53400
C2214       C  0.90774712  0.09164924  0.61868130     0.10700
H2215       H  0.88665621  0.18695191  0.59791711     0.15200
H2216       H  0.91685407  0.08013157  0.57143277     0.01000
H2217       H  0.81324095  0.11033083  0.60014254     0.15500
H2218       H  0.88953310  0.11121422  0.66003781     0.15300
N2219       N  0.84928095  0.50064110  0.55249369    -0.36000
N2220       N  0.84590715  0.44673184  0.50776578    -0.56500
N2221       N  0.85109979  0.50047674  0.96284613    -0.36000
N2222       N  0.84594325  0.05444377  0.50763321    -0.56500
C2223       C  0.84129310  0.47181854  0.56876287     0.27600
C2224       C  0.84133065  0.02954328  0.56866409     0.27600
C2225       C  0.84152766  0.47164220  0.94722337     0.27600
C2226       C  0.84159659  0.02929085  0.94716360     0.27600
C2227       C  0.84551039  0.42513749  0.53133027     0.36200
C2228       C  0.84637221  0.42502764  0.98426749     0.36200
C2229       C  0.84567863  0.07611685  0.53114116     0.36200
C2230       C  0.84651762  0.07605252  0.98407614     0.36200
C2231       C  0.82696659  0.48241374  0.59503399    -0.21300
C2232       C  0.82699611  0.01909651  0.59497322    -0.21300
C2233       C  0.82432548  0.48212015  0.92217703    -0.21200
C2234       C  0.82437640  0.01879221  0.92213498    -0.21200
C2235       C  0.84246816  0.39019560  0.52277505    -0.22300
C2236       C  0.84300945  0.39013515  0.99280836    -0.22300
C2237       C  0.84280264  0.11105107  0.52249715    -0.22300
C2238       C  0.84333758  0.11100456  0.99252076    -0.22300
C2239       C  0.84735799  0.43634189  0.56055995    -0.17700
C2240       C  0.84754717  0.06495792  0.56038863    -0.17700
C2241       C  0.84857353  0.06466930  0.95493932    -0.17700
C2242       C  0.84838917  0.43626148  0.95508675    -0.17700
H2243       H  0.81715690  0.46543870  0.61223165     0.15300
H2244       H  0.81723734  0.03617059  0.61212192     0.15300
H2245       H  0.81272182  0.46508704  0.90583336     0.15300
H2246       H  0.81282672  0.03581317  0.90574883     0.15300
H2247       H  0.83854216  0.36751598  0.53685108     0.13500
H2248       H  0.83936270  0.36745680  0.97869464     0.13500
H2249       H  0.83901749  0.13379847  0.53652049     0.13500
H2250       H  0.83986322  0.13366418  0.97834354     0.13500
H2251       H  0.86360816  0.50059543  0.53322373     0.26800
H2252       H  0.86697458  0.50049005  0.98128135     0.26800
C2253       C  0.83916446  0.34480282  0.87488288    -0.12600
C2254       C  0.82258710  0.32977237  0.85628323    -0.14200
C2255       C  0.83988465  0.15622070  0.87487217    -0.12600
C2256       C  0.82335801  0.17144775  0.85636626    -0.14200
C2257       C  0.66518473  0.32895313  0.85611911    -0.12600
C2258       C  0.64870346  0.34403176  0.87475450    -0.14200
C2259       C  0.82502796  0.32688549  0.65787524    -0.12600
C2260       C  0.84091921  0.34253832  0.63924362    -0.14200
C2261       C  0.64954258  0.15519465  0.87488019    -0.12600
C2262       C  0.66612541  0.17036134  0.85634967    -0.14200
C2263       C  0.66327823  0.32625905  0.65763361    -0.12600
C2264       C  0.64695685  0.34180130  0.63917332    -0.14200
C2265       C  0.82582107  0.17360828  0.65807755    -0.12600
C2266       C  0.84193040  0.15810809  0.63948599    -0.14200
C2267       C  0.64803604  0.15709451  0.63930726    -0.12600
C2268       C  0.66432203  0.17250755  0.65785954    -0.14200
O2269       O  0.67480721  0.68135235  0.20741883    -0.74700
O2270       O  0.70642520  0.71204777  0.17356320    -0.53600
C2271       C  0.68296057  0.68967467  0.18098561     0.79100
O2272       O  0.67582779  0.82017891  0.30653852    -0.59300
O2273       O  0.70607868  0.78807019  0.34040208    -0.52300
C2274       C  0.68355144  0.81144848  0.33297939     0.71100
O2275       O  0.67353219  0.81728015  0.20718745    -0.73800
O2276       O  0.70606722  0.78746013  0.17342575    -0.54400
C2277       C  0.68205814  0.80927134  0.18077874     0.77100
O2278       O  0.67642523  0.67943362  0.30676571    -0.59000
O2279       O  0.70709386  0.71120374  0.34055849    -0.52100
C2280       C  0.68441515  0.68794825  0.33319210     0.73700
Zr2281     Zr  0.69339635  0.69652970  0.25709047     2.54700
O2282       O  0.63030647  0.69513477  0.25807577    -0.79500
O2283       O  0.69659893  0.63193923  0.25669873    -0.92900
Zr2284     Zr  0.69230602  0.80247738  0.25686976     2.64700
O2285       O  0.62915464  0.80165883  0.25743873    -0.97900
O2286       O  0.69399794  0.86707664  0.25525324    -0.80000
O2287       O  0.69212706  0.74942243  0.22888967    -0.83300
O2288       O  0.69192820  0.74957202  0.28503540    -2.18000
O2289       O  0.81319188  0.68046552  0.30681062    -0.66700
O2290       O  0.78216635  0.71196412  0.34055780    -0.51300
C2291       C  0.80505344  0.68892346  0.33321017     0.72100
O2292       O  0.81460454  0.81820379  0.20744035    -0.59600
O2293       O  0.78297522  0.78743826  0.17363763    -0.51600
C2294       C  0.80649349  0.80974959  0.18103265     0.73900
O2295       O  0.81217454  0.82096189  0.30668364    -0.71000
O2296       O  0.78166091  0.78895997  0.34045711    -0.49700
C2297       C  0.80426099  0.81230498  0.33310146     0.75300
O2298       O  0.81566822  0.68283441  0.20760467    -0.66300
O2299       O  0.78298794  0.71230728  0.17372707    -0.53500
C2300       C  0.80708032  0.69065285  0.18117449     0.73600
Zr2301     Zr  0.79650376  0.69768484  0.25711996     2.77500
O2302       O  0.85967968  0.69766337  0.25749252    -0.97100
O2303       O  0.79342493  0.63314515  0.25555599    -0.77900
Zr2304     Zr  0.79534387  0.80365265  0.25702177     2.70100
O2305       O  0.85840007  0.80650178  0.25825783    -0.79200
O2306       O  0.78990812  0.86800752  0.25478328    -0.98200
Zr2307     Zr  0.74448170  0.74995074  0.20141650     2.21500
Zr2308     Zr  0.74430103  0.75012198  0.31267095     2.11100
O2309       O  0.79676573  0.75069772  0.28513071    -2.46900
O2310       O  0.79671971  0.75063329  0.22902649    -0.78900
O2311       O  0.74494128  0.69627698  0.28545246    -0.71100
O2312       O  0.74389290  0.80392931  0.22859125    -2.32100
O2313       O  0.74499581  0.69613013  0.22878960    -2.28300
O2314       O  0.74377824  0.80392641  0.28534161    -0.72900
H2315       H  0.67186903  0.74940759  0.29766440     0.79100
H2316       H  0.74374757  0.82431287  0.21580984     0.80200
H2317       H  0.81679043  0.75093103  0.29778602     0.82400
H2318       H  0.74526003  0.67570044  0.21601915     0.80000
H2319       H  0.71152332  0.87375129  0.27007881     0.43100
H2320       H  0.77896397  0.87469798  0.27356351     0.42000
H2321       H  0.86601604  0.78279245  0.25143300     0.41700
H2322       H  0.86617052  0.71259174  0.27444299     0.39600
H2323       H  0.77348615  0.62708739  0.26824949     0.42800
H2324       H  0.70893718  0.62595947  0.23837515     0.37600
H2325       H  0.62338841  0.72036455  0.25987276     0.43700
H2326       H  0.62288607  0.78924140  0.27576718     0.40100
H2327       H  0.86613089  0.67321361  0.26333224     0.45000
H2328       H  0.67241344  0.62413375  0.25327467     0.43700
H2329       H  0.62243327  0.82670100  0.26085125     0.43900
H2330       H  0.81402242  0.87684004  0.25636097     0.44200
C2331       C  0.86111126  0.86536862  0.39484136     0.87100
C2332       C  0.88387932  0.84275471  0.41542288    -0.53100
C2333       C  0.90467532  0.86264495  0.43323808     0.10100
C2334       C  0.90049160  0.90310095  0.42859306     0.21000
C2335       C  0.84067049  0.89067934  0.41493138    -0.53800
C2336       C  0.86138725  0.91067461  0.43265185     0.10200
C2337       C  0.88654213  0.88918324  0.37804135    -0.53400
C2338       C  0.90722900  0.90897952  0.39570941     0.10700
H2339       H  0.88413473  0.81391391  0.41543049     0.15200
H2340       H  0.91742076  0.91939373  0.44297133     0.01000
H2341       H  0.81256120  0.89243203  0.41527760     0.15500
H2342       H  0.88754547  0.89092849  0.35435693     0.15300
C2343       C  0.86172935  0.63545378  0.39473682     0.87100
C2344       C  0.88704953  0.61155143  0.37789244    -0.53100
C2345       C  0.90763732  0.59159430  0.39553820     0.10100
C2346       C  0.90090421  0.59743642  0.42843393     0.21000
C2347       C  0.84114727  0.61020592  0.41475938    -0.53800
C2348       C  0.86175146  0.59007564  0.43246081     0.10200
C2349       C  0.88458084  0.65789510  0.41536605    -0.53400
C2350       C  0.90528116  0.63786303  0.43315748     0.10700
H2351       H  0.88803460  0.60986109  0.35420477     0.15200
H2352       H  0.91773570  0.58101539  0.44279968     0.01000
H2353       H  0.81302669  0.60862630  0.41511274     0.15500
H2354       H  0.88495628  0.68673433  0.41541712     0.15300
C2355       C  0.62685645  0.86466325  0.39474866     0.87100
C2356       C  0.64739830  0.88989835  0.41481195    -0.53100
C2357       C  0.62675390  0.90994100  0.43254836     0.10100
C2358       C  0.58762085  0.90252731  0.42852377     0.21000
C2359       C  0.60404998  0.84212902  0.41537330    -0.53800
C2360       C  0.58332754  0.86208331  0.43321227     0.10200
C2361       C  0.60148957  0.88857067  0.37796574    -0.53400
C2362       C  0.58088249  0.90844840  0.39563670     0.10700
H2363       H  0.67551472  0.89154245  0.41515944     0.15200
H2364       H  0.57076715  0.91889142  0.44291122     0.01000
H2365       H  0.60372056  0.81329053  0.41538850     0.15500
H2366       H  0.60049778  0.89033896  0.35428190     0.15300
C2367       C  0.62753900  0.63459384  0.39478372     0.87100
C2368       C  0.60200481  0.61091169  0.37795697    -0.53100
C2369       C  0.58127674  0.59111494  0.39560826     0.10100
C2370       C  0.58807550  0.59687666  0.42849158     0.21000
C2371       C  0.60487957  0.65720145  0.41546013    -0.53800
C2372       C  0.58403111  0.63732757  0.43325513     0.10200
C2373       C  0.64792522  0.60914377  0.41477470    -0.53400
C2374       C  0.62715956  0.58917101  0.43245935     0.10700
H2375       H  0.60100827  0.60920700  0.35427194     0.15200
H2376       H  0.57113293  0.58057862  0.44286077     0.01000
H2377       H  0.60471417  0.68604122  0.41552221     0.15500
H2378       H  0.67603185  0.60732610  0.41512961     0.15300
N2379       N  0.99415607  0.94583447  0.38647931    -0.36000
N2380       N  0.54668737  0.49986903  0.38306320    -0.56500
N2381       N  0.99437414  0.55425867  0.38652301    -0.36000
N2382       N  0.94185298  0.50018844  0.38315483    -0.56500
C2383       C  0.52212501  0.92656705  0.37868173     0.27600
C2384       C  0.96606441  0.92673904  0.37872094     0.27600
C2385       C  0.52246067  0.57327909  0.37861378     0.27600
C2386       C  0.96640063  0.57344600  0.37858173     0.27600
C2387       C  0.56774079  0.97126053  0.38322872     0.36200
C2388       C  0.56786339  0.52837501  0.38325376     0.36200
C2389       C  0.92068119  0.97168194  0.38330876     0.36200
C2390       C  0.92079211  0.52878706  0.38321810     0.36200
C2391       C  0.51187125  0.89580901  0.36467485    -0.21300
C2392       C  0.97611252  0.89592082  0.36469832    -0.21300
C2393       C  0.51240573  0.60394770  0.36436564    -0.21200
C2394       C  0.97664765  0.60405253  0.36434120    -0.21200
C2395       C  0.60188707  0.98152011  0.38067436    -0.22300
C2396       C  0.60196510  0.51796276  0.38069614    -0.22300
C2397       C  0.88659127  0.98208411  0.38063082    -0.22300
C2398       C  0.88666103  0.51852402  0.38057334    -0.22300
C2399       C  0.55648225  0.93593250  0.38473916    -0.17700
C2400       C  0.93177367  0.93630907  0.38482196    -0.17700
C2401       C  0.93203615  0.56411187  0.38464101    -0.17700
C2402       C  0.55676067  0.56375161  0.38471962    -0.17700
H2403       H  0.52846146  0.87567089  0.35522811     0.15300
H2404       H  0.95938545  0.87588827  0.35527300     0.15300
H2405       H  0.52912885  0.62388953  0.35479934     0.15300
H2406       H  0.96005302  0.62409178  0.35475047     0.15300
H2407       H  0.62399907  0.96432375  0.37754003     0.13500
H2408       H  0.62414839  0.53506528  0.37757432     0.13500
H2409       H  0.86443129  0.96497480  0.37742486     0.13500
H2410       H  0.86456617  0.53571479  0.37732382     0.13500
H2411       H  0.99422854  0.96827284  0.39980447     0.26800
H2412       H  0.99431463  0.53191980  0.39997331     0.26800
C2413       C  0.86193055  0.86419766  0.11945029     0.87100
C2414       C  0.84069149  0.88975614  0.10013910    -0.53100
C2415       C  0.86084810  0.91064209  0.08262336     0.10100
C2416       C  0.90006328  0.90360214  0.08603358     0.21000
C2417       C  0.88463775  0.84261520  0.09813941    -0.53800
C2418       C  0.90473530  0.86335770  0.08045104     0.10200
C2419       C  0.88720517  0.88796546  0.13644155    -0.53400
C2420       C  0.90714864  0.90872322  0.11893493     0.10700
H2421       H  0.81255219  0.89096934  0.10008500     0.15200
H2422       H  0.91649746  0.92058817  0.07178506     0.01000
H2423       H  0.88536435  0.81379035  0.09755745     0.15500
H2424       H  0.88868794  0.88891247  0.16013945     0.15300
C2425       C  0.62579089  0.86342596  0.11941175     0.87100
C2426       C  0.60051320  0.88727662  0.13635655    -0.53100
C2427       C  0.58061908  0.90806148  0.11880215     0.10100
C2428       C  0.58773529  0.90284910  0.08591160     0.21000
C2429       C  0.60305280  0.84184814  0.09810831    -0.53800
C2430       C  0.58298994  0.86259795  0.08038430     0.10200
C2431       C  0.64705725  0.88891297  0.10008370    -0.53400
C2432       C  0.62697194  0.90979190  0.08252613     0.10700
H2433       H  0.59903742  0.88829948  0.16005076     0.15200
H2434       H  0.57135760  0.91984471  0.07162052     0.01000
H2435       H  0.60227054  0.81302509  0.09756530     0.15500
H2436       H  0.67519832  0.89007338  0.10003897     0.15300
N2437       N  0.94063835  0.85098011  0.00652023    -0.36000
N2438       N  0.99381506  0.84802159  0.05078947    -0.56500
N2439       N  0.54714478  0.85030529  0.00649079    -0.36000
N2440       N  0.99395229  0.84503900  0.46218174    -0.56500
C2441       C  0.92165268  0.84243234  0.03032906     0.27600
C2442       C  0.92187850  0.84125490  0.48291610     0.27600
C2443       C  0.56595896  0.84149202  0.03032678     0.27600
C2444       C  0.56592195  0.84055331  0.48289605     0.27600
C2445       C  0.96584569  0.84684895  0.06855373     0.36200
C2446       C  0.52177947  0.84652807  0.06853922     0.36200
C2447       C  0.96593617  0.84550405  0.44440276     0.36200
C2448       C  0.52196311  0.84532719  0.44438712     0.36200
C2449       C  0.89141516  0.82562170  0.02188214    -0.21300
C2450       C  0.89153807  0.82491968  0.49171873    -0.21300
C2451       C  0.59608253  0.82443732  0.02190734    -0.21200
C2452       C  0.59607679  0.82387649  0.49173313    -0.21200
C2453       C  0.97597924  0.84111092  0.09700621    -0.22300
C2454       C  0.51160043  0.84092253  0.09699890    -0.22300
C2455       C  0.97611050  0.84258423  0.41564732    -0.22300
C2456       C  0.51176026  0.84248305  0.41563635    -0.22300
C2457       C  0.93117209  0.84950288  0.05938452    -0.17700
C2458       C  0.93122319  0.84782829  0.45375087    -0.17700
C2459       C  0.55669376  0.84735564  0.45372599    -0.17700
C2460       C  0.55648185  0.84876588  0.05936612    -0.17700
H2461       H  0.87162246  0.81465835  0.03601689     0.15300
H2462       H  0.87175905  0.81350682  0.47781226     0.15300
H2463       H  0.61576224  0.81330217  0.03606623     0.15300
H2464       H  0.61582746  0.81237252  0.47784799     0.15300
H2465       H  0.95923341  0.83553284  0.11536115     0.13500
H2466       H  0.52830103  0.83517858  0.11535004     0.13500
H2467       H  0.95935812  0.83920270  0.39693521     0.13500
H2468       H  0.52848271  0.83900150  0.39691663     0.13500
H2469       H  0.96291665  0.86662989  0.00628039     0.26800
H2470       H  0.52502451  0.86618934  0.00625484     0.26800
C2471       C  0.62672013  0.63572826  0.11946585     0.87100
C2472       C  0.64781278  0.61030019  0.09996650    -0.53100
C2473       C  0.62755958  0.58962803  0.08238904     0.10100
C2474       C  0.58837501  0.59669994  0.08590161     0.21000
C2475       C  0.60398408  0.65755372  0.09829264    -0.53800
C2476       C  0.58378901  0.63700122  0.08050627     0.10200
C2477       C  0.60141736  0.61184177  0.13637346    -0.53400
C2478       C  0.58136695  0.59125308  0.11878974     0.10700
H2479       H  0.67594809  0.60897796  0.09986309     0.15200
H2480       H  0.57188663  0.57986242  0.07158392     0.01000
H2481       H  0.60336538  0.68638408  0.09783610     0.15500
H2482       H  0.60002938  0.61067090  0.16006751     0.15300
N2483       N  0.94112218  0.00002537  0.12717424    -0.36000
N2484       N  0.99399865  0.94604574  0.13122535    -0.56500
N2485       N  0.54733710  0.49973200  0.12709482    -0.36000
N2486       N  0.99446820  0.55375186  0.13081179    -0.56500
C2487       C  0.92081341  0.97130242  0.13115787     0.27600
C2488       C  0.92102774  0.52894269  0.13094191     0.27600
C2489       C  0.56741291  0.97080501  0.13096166     0.27600
C2490       C  0.56767715  0.52849008  0.13090923     0.27600
C2491       C  0.96599400  0.92573013  0.13652190     0.36200
C2492       C  0.52189140  0.92554122  0.13643512     0.36200
C2493       C  0.96655581  0.57418700  0.13614023     0.36200
C2494       C  0.52246249  0.57404843  0.13621320     0.36200
C2495       C  0.88759142  0.98196570  0.13818465    -0.21300
C2496       C  0.88772944  0.51860190  0.13805185    -0.21300
C2497       C  0.60073857  0.98117153  0.13793929    -0.21200
C2498       C  0.60089999  0.51781684  0.13792808    -0.21200
C2499       C  0.97598938  0.89325893  0.14770020    -0.22300
C2500       C  0.51171545  0.89313856  0.14764577    -0.22300
C2501       C  0.97670602  0.60651060  0.14749698    -0.22300
C2502       C  0.51243232  0.60642471  0.14754031    -0.22300
C2503       C  0.93183106  0.93578229  0.12995702    -0.17700
C2504       C  0.93232896  0.56436441  0.12953488    -0.17700
C2505       C  0.55665962  0.56405026  0.12968589    -0.17700
C2506       C  0.55610482  0.93535235  0.12976080    -0.17700
H2507       H  0.86612662  0.96503815  0.14430668     0.15300
H2508       H  0.86639460  0.53575129  0.14406995     0.15300
H2509       H  0.62207937  0.96403640  0.14398047     0.15300
H2510       H  0.62238163  0.53474884  0.14398659     0.15300
H2511       H  0.95925767  0.87213324  0.15530306     0.13500
H2512       H  0.52833301  0.87189647  0.15520476     0.13500
H2513       H  0.96006999  0.62766320  0.15518869     0.13500
H2514       H  0.52914435  0.62749872  0.15526131     0.13500
H2515       H  0.96599068  0.99990369  0.11875562     0.26800
H2516       H  0.52243319  0.49980012  0.11875316     0.26800
N2517       N  0.63903937  0.49965046  0.05235496    -0.36000
N2518       N  0.64242974  0.55345557  0.00760143    -0.56500
N2519       N  0.63733737  0.49953479  0.46283936    -0.36000
N2520       N  0.64237442  0.94571291  0.00768424    -0.56500
C2521       C  0.64712124  0.52851118  0.06853539     0.27600
C2522       C  0.64697949  0.97078866  0.06859358     0.27600
C2523       C  0.64702809  0.52831502  0.44720118     0.27600
C2524       C  0.64691995  0.97069084  0.44724133     0.27600
C2525       C  0.64271269  0.57512757  0.03109361     0.36200
C2526       C  0.64198440  0.57507234  0.48406472     0.36200
C2527       C  0.64242478  0.92410198  0.03122962     0.36200
C2528       C  0.64171045  0.92403686  0.48418449     0.36200
C2529       C  0.66152860  0.51798833  0.09479201    -0.21300
C2530       C  0.66144041  0.98130840  0.09482945    -0.21300
C2531       C  0.66435895  0.51777687  0.42224240    -0.21200
C2532       C  0.66428413  0.98111453  0.42226523    -0.18700
C2533       C  0.64568963  0.61005596  0.02246867    -0.22300
C2534       C  0.64522653  0.61001357  0.49250418    -0.22300
C2535       C  0.64507332  0.88912315  0.02267174    -0.22300
C2536       C  0.64462905  0.88909334  0.49270309    -0.22300
C2537       C  0.64095740  0.56395569  0.06031520    -0.17700
C2538       C  0.64061431  0.93535602  0.06043657    -0.17700
C2539       C  0.63986094  0.93534952  0.45503175    -0.17700
C2540       C  0.64011334  0.56370190  0.45494545    -0.17700
H2541       H  0.67138114  0.53501108  0.11193513     0.15300
H2542       H  0.67121368  0.96428426  0.11200885     0.15300
H2543       H  0.67604141  0.53476635  0.40590405     0.15300
H2544       H  0.67589158  0.96404930  0.40594669     0.15300
H2545       H  0.64959663  0.63277277  0.03649829     0.13500
H2546       H  0.64887703  0.63264409  0.47832944     0.13500
H2547       H  0.64869799  0.86639494  0.03675044     0.13500
H2548       H  0.64805362  0.86639504  0.47857275     0.13500
H2549       H  0.62462409  0.49965551  0.03312940     0.26800
H2550       H  0.62134134  0.49957987  0.48120165     0.26800
N2551       N  0.94140476  0.64951950  0.00646184    -0.36000
N2552       N  0.99471403  0.65230429  0.05077495    -0.56500
N2553       N  0.54795119  0.64941244  0.00654284    -0.36000
N2554       N  0.99468543  0.65498881  0.46213753    -0.56500
C2555       C  0.92251679  0.65824230  0.03028204     0.27600
C2556       C  0.92265279  0.65926310  0.48284371     0.27600
C2557       C  0.56688225  0.65811286  0.03035200     0.27600
C2558       C  0.56673390  0.65900833  0.48290451     0.27600
C2559       C  0.96673139  0.65352873  0.06852492     0.36200
C2560       C  0.52267124  0.65345367  0.06856631     0.36200
C2561       C  0.96667861  0.65451536  0.44433661     0.36200
C2562       C  0.52271901  0.65434538  0.44437386     0.36200
C2563       C  0.89234797  0.67518783  0.02182697    -0.21300
C2564       C  0.89241429  0.67580167  0.49165305    -0.21300
C2565       C  0.59709850  0.67493799  0.02186104    -0.21200
C2566       C  0.59702799  0.67545981  0.49168338    -0.21200
C2567       C  0.97687902  0.65894324  0.09701385    -0.22300
C2568       C  0.51249246  0.65888738  0.09704117    -0.22300
C2569       C  0.97690523  0.65706741  0.41556893    -0.22300
C2570       C  0.51255672  0.65695417  0.41559305    -0.22300
C2571       C  0.93203257  0.65115340  0.05935372    -0.17700
C2572       C  0.93193280  0.65251693  0.45367532    -0.17700
C2573       C  0.55744237  0.65217304  0.45374819    -0.17700
C2574       C  0.55738029  0.65102875  0.05943417    -0.17700
H2575       H  0.87263838  0.68629442  0.03596696     0.15300
H2576       H  0.87267094  0.68729607  0.47775026     0.15300
H2577       H  0.61687809  0.68596223  0.03597475     0.15300
H2578       H  0.61683136  0.68679460  0.47775519     0.15300
H2579       H  0.96015352  0.66446334  0.11539029     0.13500
H2580       H  0.52920274  0.66435198  0.11544014     0.13500
H2581       H  0.96019313  0.66036776  0.39682039     0.13500
H2582       H  0.52932301  0.66014959  0.39686702     0.13500
H2583       H  0.96360308  0.63374870  0.00624801     0.26800
H2584       H  0.52571309  0.63370352  0.00633963     0.26800
C2585       C  0.86285926  0.63653371  0.11955089     0.87100
C2586       C  0.88570025  0.65813111  0.09832429    -0.53100
C2587       C  0.90556117  0.63737680  0.08043949     0.10100
C2588       C  0.90060192  0.59713370  0.08581224     0.21000
C2589       C  0.84138752  0.61135729  0.10011399    -0.53800
C2590       C  0.86132336  0.59050577  0.08241545     0.10200
C2591       C  0.88799042  0.61239248  0.13634903    -0.53400
C2592       C  0.90774707  0.59164922  0.11868132     0.10700
H2593       H  0.88665615  0.68695194  0.09791710     0.15200
H2594       H  0.91685397  0.58013162  0.07143276     0.01000
H2595       H  0.81324092  0.61033090  0.10014260     0.15500
H2596       H  0.88953309  0.61121420  0.16003789     0.15300
N2597       N  0.84928107  0.00064109  0.05249358    -0.36000
N2598       N  0.84590712  0.94673180  0.00776577    -0.56500
N2599       N  0.85109975  0.00047672  0.46284605    -0.36000
N2600       N  0.84594324  0.55444385  0.00763323    -0.56500
C2601       C  0.84129320  0.97181855  0.06876281     0.27600
C2602       C  0.84133058  0.52954332  0.06866410     0.27600
C2603       C  0.84152773  0.97164219  0.44722334     0.27600
C2604       C  0.84159655  0.52929089  0.44716355     0.27600
C2605       C  0.84551038  0.92513745  0.03133026     0.36200
C2606       C  0.84637220  0.92502761  0.48426746     0.36200
C2607       C  0.84567857  0.57611695  0.03114118     0.36200
C2608       C  0.84651761  0.57605257  0.48407614     0.36200
C2609       C  0.82696668  0.98241376  0.09503391    -0.21300
C2610       C  0.82699606  0.51909652  0.09497320    -0.21300
C2611       C  0.82432557  0.98212015  0.42217707    -0.21200
C2612       C  0.82437639  0.51879224  0.42213495    -0.21200
C2613       C  0.84246816  0.89019552  0.02277508    -0.22300
C2614       C  0.84300944  0.89013514  0.49280833    -0.22300
C2615       C  0.84280261  0.61105118  0.02249718    -0.22300
C2616       C  0.84333754  0.61100454  0.49252086    -0.22300
C2617       C  0.84735808  0.93634190  0.06055992    -0.17700
C2618       C  0.84754704  0.56495799  0.06038865    -0.17700
C2619       C  0.84857343  0.56466938  0.45493928    -0.17700
C2620       C  0.84838917  0.93626145  0.45508673    -0.17700
H2621       H  0.81715689  0.96543872  0.11223154     0.15300
H2622       H  0.81723726  0.53617057  0.11212190     0.15300
H2623       H  0.81272183  0.96508711  0.40583340     0.15300
H2624       H  0.81282672  0.53581324  0.40574881     0.15300
H2625       H  0.83854220  0.86751591  0.03685116     0.13500
H2626       H  0.83936269  0.86745673  0.47869469     0.13500
H2627       H  0.83901741  0.63379859  0.03652047     0.13500
H2628       H  0.83986317  0.63366420  0.47834367     0.13500
H2629       H  0.86360825  0.00059535  0.03322366     0.26800
H2630       H  0.86697449  0.00048998  0.48128133     0.26800
C2631       C  0.83916453  0.84480270  0.37488287    -0.12600
C2632       C  0.82258724  0.82977217  0.35628321    -0.14200
C2633       C  0.83988481  0.65622074  0.37487212    -0.12600
C2634       C  0.82335814  0.67144781  0.35636625    -0.14200
C2635       C  0.66518481  0.82895315  0.35611911    -0.12600
C2636       C  0.64870353  0.84403174  0.37475451    -0.14200
C2637       C  0.82502788  0.82688562  0.15787523    -0.12600
C2638       C  0.84091918  0.84253847  0.13924364    -0.14200
C2639       C  0.64954255  0.65519465  0.37488016    -0.12600
C2640       C  0.66612539  0.67036132  0.35634964    -0.14200
C2641       C  0.66327817  0.82625902  0.15763358    -0.12600
C2642       C  0.64695677  0.84180125  0.13917329    -0.14200
C2643       C  0.82582098  0.67360828  0.15807750    -0.12600
C2644       C  0.84193038  0.65810812  0.13948597    -0.14200
C2645       C  0.64803606  0.65709452  0.13930727    -0.12600
C2646       C  0.66432205  0.67250758  0.15785955    -0.14200
O2647       O  0.67480725  0.68135233  0.70741880    -0.74700
O2648       O  0.70642523  0.71204774  0.67356316    -0.53600
C2649       C  0.68296060  0.68967463  0.68098557     0.79100
O2650       O  0.67582779  0.82017886  0.80653858    -0.59300
O2651       O  0.70607867  0.78807015  0.84040215    -0.52300
C2652       C  0.68355145  0.81144843  0.83297946     0.71100
O2653       O  0.67353219  0.81728011  0.70718750    -0.73800
O2654       O  0.70606721  0.78746010  0.67342579    -0.54400
C2655       C  0.68205813  0.80927130  0.68077878     0.77100
O2656       O  0.67642515  0.67943373  0.80676571    -0.59000
O2657       O  0.70709373  0.71120378  0.84055856    -0.52100
C2658       C  0.68441504  0.68794829  0.83319213     0.73700
Zr2659     Zr  0.69339632  0.69652979  0.75709044     2.54700
O2660       O  0.63030645  0.69513458  0.75807583    -0.79500
O2661       O  0.69659914  0.63193934  0.75669882    -0.92900
Zr2662     Zr  0.69230602  0.80247741  0.75686979     2.64700
O2663       O  0.62915460  0.80165893  0.75743876    -0.97900
O2664       O  0.69399820  0.86707663  0.75525331    -0.80000
O2665       O  0.69212696  0.74942253  0.72888963    -0.83300
O2666       O  0.69192819  0.74957203  0.78503539    -2.18000
O2667       O  0.81319188  0.68046553  0.80681063    -0.66700
O2668       O  0.78216624  0.71196399  0.84055781    -0.51300
C2669       C  0.80505341  0.68892344  0.83321017     0.72100
O2670       O  0.81460458  0.81820370  0.70744036    -0.59600
O2671       O  0.78297527  0.78743818  0.67363763    -0.51600
C2672       C  0.80649356  0.80974946  0.68103266     0.73900
O2673       O  0.81217453  0.82096189  0.80668367    -0.71000
O2674       O  0.78166090  0.78895996  0.84045715    -0.49700
C2675       C  0.80426093  0.81230503  0.83310150     0.75300
O2676       O  0.81566823  0.68283442  0.70760472    -0.66300
O2677       O  0.78298795  0.71230729  0.67372712    -0.53500
C2678       C  0.80708035  0.69065285  0.68117455     0.73600
Zr2679     Zr  0.79650371  0.69768483  0.75711999     2.77500
O2680       O  0.85967962  0.69766320  0.75749246    -0.97100
O2681       O  0.79342457  0.63314518  0.75555591    -0.77900
Zr2682     Zr  0.79534385  0.80365264  0.75702177     2.70100
O2683       O  0.85840004  0.80650166  0.75825775    -0.79200
O2684       O  0.78990815  0.86800749  0.75478329    -0.98200
Zr2685     Zr  0.74448169  0.74995078  0.70141652     2.21500
Zr2686     Zr  0.74430097  0.75012194  0.81267100     2.11100
O2687       O  0.79676566  0.75069769  0.78513073    -2.46900
O2688       O  0.79671969  0.75063327  0.72902653    -0.78900
O2689       O  0.74494120  0.69627694  0.78545248    -0.71100
O2690       O  0.74389290  0.80392934  0.72859126    -2.32100
O2691       O  0.74499580  0.69613019  0.72878961    -2.28300
O2692       O  0.74377824  0.80392635  0.78534166    -0.72900
H2693       H  0.67186906  0.74940757  0.79766427     0.79100
H2694       H  0.74374759  0.82431312  0.71580969     0.80200
H2695       H  0.81679015  0.75093096  0.79778588     0.82400
H2696       H  0.74526003  0.67570065  0.71601922     0.80000
H2697       H  0.71152310  0.87375121  0.77007931     0.43100
H2698       H  0.77896429  0.87469798  0.77356366     0.42000
H2699       H  0.86601595  0.78279305  0.75143107     0.41700
H2700       H  0.86617048  0.71259245  0.77444247     0.39600
H2701       H  0.77348670  0.62708743  0.76825041     0.42800
H2702       H  0.70893798  0.62595957  0.73837554     0.37600
H2703       H  0.62338825  0.72036438  0.75987195     0.43700
H2704       H  0.62288595  0.78924110  0.77576696     0.40100
H2705       H  0.86613084  0.67321383  0.76333304     0.45000
H2706       H  0.67241374  0.62413377  0.75327438     0.43700
H2707       H  0.62243324  0.82670104  0.76085173     0.43900
H2708       H  0.81402245  0.87684001  0.75636070     0.44200
C2709       C  0.86111126  0.86536863  0.89484138     0.87100
C2710       C  0.88387930  0.84275469  0.91542288    -0.53100
C2711       C  0.90467534  0.86264490  0.93323807     0.10100
C2712       C  0.90049162  0.90310092  0.92859310     0.21000
C2713       C  0.84067051  0.89067936  0.91493140    -0.53800
C2714       C  0.86138727  0.91067459  0.93265189     0.10200
C2715       C  0.88654217  0.88918324  0.87804139    -0.53400
C2716       C  0.90722900  0.90897953  0.89570946     0.10700
H2717       H  0.88413466  0.81391389  0.91543049     0.15200
H2718       H  0.91742079  0.91939368  0.94297137     0.01000
H2719       H  0.81256123  0.89243213  0.91527759     0.15500
H2720       H  0.88754558  0.89092845  0.85435697     0.15300
C2721       C  0.86172937  0.63545382  0.89473687     0.87100
C2722       C  0.88704957  0.61155148  0.87789248    -0.53100
C2723       C  0.90763734  0.59159434  0.89553822     0.10100
C2724       C  0.90090424  0.59743648  0.92843392     0.21000
C2725       C  0.84114736  0.61020589  0.91475944    -0.53800
C2726       C  0.86175154  0.59007562  0.93246083     0.10200
C2727       C  0.88458085  0.65789510  0.91536612    -0.53400
C2728       C  0.90528120  0.63786306  0.93315750     0.10700
H2729       H  0.88803465  0.60986119  0.85420482     0.15200
H2730       H  0.91773578  0.58101545  0.94279963     0.01000
H2731       H  0.81302679  0.60862623  0.91511283     0.15500
H2732       H  0.88495627  0.68673432  0.91541720     0.15300
C2733       C  0.62685651  0.86466328  0.89474872     0.87100
C2734       C  0.64739834  0.88989835  0.91481201    -0.53100
C2735       C  0.62675393  0.90994101  0.93254839     0.10100
C2736       C  0.58762089  0.90252734  0.92852377     0.21000
C2737       C  0.60405001  0.84212918  0.91537336    -0.53800
C2738       C  0.58332754  0.86208340  0.93321230     0.10200
C2739       C  0.60148963  0.88857065  0.87796577    -0.53400
C2740       C  0.58088257  0.90844841  0.89563670     0.10700
H2741       H  0.67551475  0.89154247  0.91515954     0.15200
H2742       H  0.57076720  0.91889145  0.94291122     0.01000
H2743       H  0.60372057  0.81329068  0.91538856     0.15500
H2744       H  0.60049783  0.89033886  0.85428193     0.15300
C2745       C  0.62753901  0.63459378  0.89478379     0.87100
C2746       C  0.60200482  0.61091164  0.87795703    -0.53100
C2747       C  0.58127674  0.59111492  0.89560833     0.10100
C2748       C  0.58807549  0.59687664  0.92849166     0.21000
C2749       C  0.60487958  0.65720141  0.91546018    -0.53800
C2750       C  0.58403112  0.63732758  0.93325520     0.10200
C2751       C  0.64792522  0.60914370  0.91477476    -0.53400
C2752       C  0.62715956  0.58917097  0.93245943     0.10700
H2753       H  0.60100828  0.60920695  0.85427200     0.15200
H2754       H  0.57113293  0.58057861  0.94286085     0.01000
H2755       H  0.60471417  0.68604118  0.91552223     0.15500
H2756       H  0.67603185  0.60732600  0.91512966     0.15300
N2757       N  0.99415610  0.94583440  0.88647937    -0.36000
N2758       N  0.54668741  0.49986902  0.88306324    -0.56500
N2759       N  0.99437414  0.55425857  0.88652297    -0.36000
N2760       N  0.94185299  0.50018847  0.88315470    -0.56500
C2761       C  0.52212505  0.92656695  0.87868181     0.27600
C2762       C  0.96606442  0.92673900  0.87872102     0.27600
C2763       C  0.52246070  0.57327904  0.87861372     0.27600
C2764       C  0.96640065  0.57344601  0.87858176     0.27600
C2765       C  0.56774084  0.97126048  0.88322861     0.36200
C2766       C  0.56786344  0.52837500  0.88325378     0.36200
C2767       C  0.92068121  0.97168196  0.88330887     0.36200
C2768       C  0.92079212  0.52878708  0.88321806     0.36200
C2769       C  0.51187130  0.89580886  0.86467500    -0.21300
C2770       C  0.97611249  0.89592079  0.86469835    -0.21300
C2771       C  0.51240577  0.60394773  0.86436560    -0.21200
C2772       C  0.97664767  0.60405256  0.86434124    -0.21200
C2773       C  0.60188713  0.98152008  0.88067419    -0.22300
C2774       C  0.60196516  0.51796280  0.88069601    -0.22300
C2775       C  0.88659131  0.98208415  0.88063088    -0.22300
C2776       C  0.88666106  0.51852404  0.88057331    -0.22300
C2777       C  0.55648232  0.93593246  0.88473912    -0.17700
C2778       C  0.93177368  0.93630908  0.88482203    -0.17700
C2779       C  0.93203617  0.56411188  0.88464104    -0.17700
C2780       C  0.55676068  0.56375159  0.88471966    -0.17700
H2781       H  0.52846151  0.87567073  0.85522829     0.15300
H2782       H  0.95938544  0.87588822  0.85527305     0.15300
H2783       H  0.52912892  0.62388955  0.85479932     0.15300
H2784       H  0.96005304  0.62409184  0.85475053     0.15300
H2785       H  0.62399916  0.96432373  0.87753982     0.13500
H2786       H  0.62414844  0.53506535  0.87757414     0.13500
H2787       H  0.86443130  0.96497490  0.87742487     0.13500
H2788       H  0.86456618  0.53571478  0.87732379     0.13500
H2789       H  0.99422860  0.96827277  0.89980451     0.26800
H2790       H  0.99431463  0.53191971  0.89997322     0.26800
C2791       C  0.86193053  0.86419756  0.61945026     0.87100
C2792       C  0.84069141  0.88975606  0.60013912    -0.53100
C2793       C  0.86084802  0.91064208  0.58262340     0.10100
C2794       C  0.90006323  0.90360217  0.58603359     0.21000
C2795       C  0.88463775  0.84261517  0.59813936    -0.53800
C2796       C  0.90473528  0.86335774  0.58045101     0.10200
C2797       C  0.88720513  0.88796536  0.63644154    -0.53400
C2798       C  0.90714858  0.90872320  0.61893494     0.10700
H2799       H  0.81255210  0.89096922  0.60008506     0.15200
H2800       H  0.91649737  0.92058823  0.57178508     0.01000
H2801       H  0.88536436  0.81379031  0.59755734     0.15500
H2802       H  0.88868791  0.88891231  0.66013944     0.15300
C2803       C  0.62579091  0.86342604  0.61941180     0.87100
C2804       C  0.60051320  0.88727671  0.63635650    -0.53100
C2805       C  0.58061908  0.90806158  0.61880214     0.10100
C2806       C  0.58773531  0.90284915  0.58591164     0.21000
C2807       C  0.60305281  0.84184822  0.59810838    -0.53800
C2808       C  0.58298994  0.86259802  0.58038437     0.10200
C2809       C  0.64705727  0.88891303  0.60008376    -0.53400
C2810       C  0.62697196  0.90979192  0.58252616     0.10700
H2811       H  0.59903742  0.88829963  0.66005070     0.15200
H2812       H  0.57135764  0.91984472  0.57162053     0.01000
H2813       H  0.60227054  0.81302516  0.59756538     0.15500
H2814       H  0.67519834  0.89007349  0.60003906     0.15300
N2815       N  0.94063837  0.85098008  0.50652027    -0.36000
N2816       N  0.99381509  0.84802161  0.55078948    -0.56500
N2817       N  0.54714471  0.85030539  0.50649084    -0.36000
N2818       N  0.99395230  0.84503900  0.96218171    -0.56500
C2819       C  0.92165271  0.84243232  0.53032908     0.27600
C2820       C  0.92187847  0.84125485  0.98291606     0.27600
C2821       C  0.56595894  0.84149213  0.53032683     0.27600
C2822       C  0.56592194  0.84055329  0.98289602     0.27600
C2823       C  0.96584569  0.84684904  0.56855375     0.36200
C2824       C  0.52177945  0.84652811  0.56853927     0.36200
C2825       C  0.96593616  0.84550398  0.94440270     0.36200
C2826       C  0.52196310  0.84532721  0.94438713     0.36200
C2827       C  0.89141521  0.82562169  0.52188220    -0.21300
C2828       C  0.89153797  0.82491960  0.99171864    -0.21300
C2829       C  0.59608247  0.82443738  0.52190737    -0.21200
C2830       C  0.59607676  0.82387648  0.99173309    -0.21200
C2831       C  0.97597914  0.84111089  0.59700625    -0.22300
C2832       C  0.51160033  0.84092243  0.59699894    -0.22300
C2833       C  0.97611044  0.84258415  0.91564723    -0.22300
C2834       C  0.51176026  0.84248289  0.91563636    -0.22300
C2835       C  0.93117210  0.84950298  0.55938451    -0.17700
C2836       C  0.93122321  0.84782823  0.95375083    -0.17700
C2837       C  0.55669377  0.84735566  0.95372598    -0.17700
C2838       C  0.55648184  0.84876596  0.55936618    -0.17700
H2839       H  0.87162248  0.81465831  0.53601691     0.15300
H2840       H  0.87175899  0.81350674  0.97781214     0.15300
H2841       H  0.61576212  0.81330220  0.53606631     0.15300
H2842       H  0.61582741  0.81237255  0.97784790     0.15300
H2843       H  0.95923332  0.83553277  0.61536119     0.13500
H2844       H  0.52830092  0.83517839  0.61535006     0.13500
H2845       H  0.95935812  0.83920256  0.89693509     0.13500
H2846       H  0.52848279  0.83900117  0.89691672     0.13500
H2847       H  0.96291666  0.86662987  0.50628049     0.26800
H2848       H  0.52502445  0.86618939  0.50625490     0.26800
C2849       C  0.62672014  0.63572821  0.61946581     0.87100
C2850       C  0.64781279  0.61030015  0.59996647    -0.53100
C2851       C  0.62755959  0.58962798  0.58238899     0.10100
C2852       C  0.58837501  0.59669987  0.58590158     0.21000
C2853       C  0.60398410  0.65755366  0.59829257    -0.53800
C2854       C  0.58378903  0.63700116  0.58050620     0.10200
C2855       C  0.60141737  0.61184174  0.63637341    -0.53400
C2856       C  0.58136696  0.59125304  0.61878971     0.10700
H2857       H  0.67594811  0.60897797  0.59986303     0.15200
H2858       H  0.57188664  0.57986234  0.57158390     0.01000
H2859       H  0.60336544  0.68638403  0.59783599     0.15500
H2860       H  0.60002939  0.61067086  0.66006746     0.15300
N2861       N  0.94112222  0.00002532  0.62717427    -0.36000
N2862       N  0.99399863  0.94604576  0.63122542    -0.56500
N2863       N  0.54733721  0.49973197  0.62709484    -0.36000
N2864       N  0.99446821  0.55375199  0.63081184    -0.56500
C2865       C  0.92081342  0.97130238  0.63115798     0.27600
C2866       C  0.92102773  0.52894278  0.63094190     0.27600
C2867       C  0.56741288  0.97080509  0.63096173     0.27600
C2868       C  0.56767716  0.52849005  0.63090925     0.27600
C2869       C  0.96599398  0.92573007  0.63652189     0.36200
C2870       C  0.52189138  0.92554128  0.63643520     0.36200
C2871       C  0.96655584  0.57418710  0.63614029     0.36200
C2872       C  0.52246251  0.57404848  0.63621324     0.36200
C2873       C  0.88759147  0.98196568  0.63818483    -0.21300
C2874       C  0.88772940  0.51860200  0.63805183    -0.21300
C2875       C  0.60073856  0.98117155  0.63793939    -0.21200
C2876       C  0.60090001  0.51781683  0.63792807    -0.21200
C2877       C  0.97598937  0.89325885  0.64770015    -0.22300
C2878       C  0.51171545  0.89313860  0.64764574    -0.22300
C2879       C  0.97670608  0.60651065  0.64749702    -0.22300
C2880       C  0.51243234  0.60642478  0.64754040    -0.22300
C2881       C  0.93183104  0.93578223  0.62995705    -0.17700
C2882       C  0.93232899  0.56436450  0.62953493    -0.17700
C2883       C  0.55665965  0.56405026  0.62968592    -0.17700
C2884       C  0.55610478  0.93535244  0.62976082    -0.17700
H2885       H  0.86612668  0.96503813  0.64430690     0.15300
H2886       H  0.86639460  0.53575142  0.64406997     0.15300
H2887       H  0.62207928  0.96403635  0.64398059     0.15300
H2888       H  0.62238166  0.53474878  0.64398659     0.15300
H2889       H  0.95925769  0.87213308  0.65530294     0.13500
H2890       H  0.52833302  0.87189650  0.65520469     0.13500
H2891       H  0.96007007  0.62766326  0.65518878     0.13500
H2892       H  0.52914438  0.62749877  0.65526144     0.13500
H2893       H  0.96599063  0.99990363  0.61875555     0.26800
H2894       H  0.52243319  0.49980011  0.61875319     0.26800
N2895       N  0.63903940  0.49965046  0.55235494    -0.36000
N2896       N  0.64242975  0.55345553  0.50760134    -0.56500
N2897       N  0.63733741  0.49953474  0.96283944    -0.36000
N2898       N  0.64237443  0.94571287  0.50768424    -0.56500
C2899       C  0.64712126  0.52851119  0.56853533     0.27600
C2900       C  0.64697945  0.97078865  0.56859362     0.27600
C2901       C  0.64702807  0.52831499  0.94720125     0.27600
C2902       C  0.64691989  0.97069086  0.94724131     0.27600
C2903       C  0.64271269  0.57512755  0.53109354     0.36200
C2904       C  0.64198441  0.57507239  0.98406479     0.36200
C2905       C  0.64242479  0.92410194  0.53122964     0.36200
C2906       C  0.64171046  0.92403689  0.98418448     0.36200
C2907       C  0.66152864  0.51798835  0.59479196    -0.21300
C2908       C  0.66144029  0.98130840  0.59482952    -0.21300
C2909       C  0.66435877  0.51777685  0.92224239    -0.21200
C2910       C  0.66428401  0.98111452  0.92226517    -0.18700
C2911       C  0.64568964  0.61005595  0.52246863    -0.22300
C2912       C  0.64522655  0.61001367  0.99250421    -0.22300
C2913       C  0.64507334  0.88912307  0.52267179    -0.22300
C2914       C  0.64462905  0.88909341  0.99270308    -0.22300
C2915       C  0.64095741  0.56395567  0.56031513    -0.17700
C2916       C  0.64061433  0.93535602  0.56043660    -0.17700
C2917       C  0.63986094  0.93534955  0.95503177    -0.17700
C2918       C  0.64011335  0.56370188  0.95494554    -0.17700
H2919       H  0.67138120  0.53501106  0.61193511     0.15300
H2920       H  0.67121349  0.96428423  0.61200894     0.15300
H2921       H  0.67604118  0.53476634  0.90590400     0.15300
H2922       H  0.67589137  0.96404931  0.90594657     0.15300
H2923       H  0.64959663  0.63277280  0.53649821     0.13500
H2924       H  0.64887707  0.63264421  0.97832948     0.13500
H2925       H  0.64869801  0.86639490  0.53675052     0.13500
H2926       H  0.64805361  0.86639509  0.97857281     0.13500
H2927       H  0.62462406  0.49965551  0.53312938     0.26800
H2928       H  0.62134144  0.49957981  0.98120176     0.26800
N2929       N  0.94140475  0.64951947  0.50646184    -0.36000
N2930       N  0.99471405  0.65230425  0.55077491    -0.56500
N2931       N  0.54795123  0.64941245  0.50654277    -0.36000
N2932       N  0.99468543  0.65498877  0.96213751    -0.56500
C2933       C  0.92251676  0.65824227  0.53028203     0.27600
C2934       C  0.92265279  0.65926313  0.98284370     0.27600
C2935       C  0.56688221  0.65811281  0.53035192     0.27600
C2936       C  0.56673393  0.65900844  0.98290458     0.27600
C2937       C  0.96673139  0.65352868  0.56852489     0.36200
C2938       C  0.52267123  0.65345362  0.56856624     0.36200
C2939       C  0.96667864  0.65451534  0.94433662     0.36200
C2940       C  0.52271904  0.65434554  0.94437390     0.36200
C2941       C  0.89234791  0.67518782  0.52182704    -0.21300
C2942       C  0.89241430  0.67580168  0.99165301    -0.21300
C2943       C  0.59709842  0.67493792  0.52186091    -0.21200
C2944       C  0.59702808  0.67545991  0.99168347    -0.21200
C2945       C  0.97687895  0.65894320  0.59701386    -0.22300
C2946       C  0.51249240  0.65888726  0.59704111    -0.22300
C2947       C  0.97690531  0.65706736  0.91556896    -0.22300
C2948       C  0.51255676  0.65695416  0.91559308    -0.22300
C2949       C  0.93203258  0.65115332  0.55935369    -0.17700
C2950       C  0.93193282  0.65251698  0.95367532    -0.17700
C2951       C  0.55744239  0.65217317  0.95374824    -0.17700
C2952       C  0.55738030  0.65102869  0.55943410    -0.17700
H2953       H  0.87263833  0.68629433  0.53596707     0.15300
H2954       H  0.87267096  0.68729609  0.97775021     0.15300
H2955       H  0.61687805  0.68596216  0.53597457     0.15300
H2956       H  0.61683147  0.68679468  0.97775529     0.15300
H2957       H  0.96015345  0.66446329  0.61539031     0.13500
H2958       H  0.52920277  0.66435186  0.61544002     0.13500
H2959       H  0.96019323  0.66036776  0.89682040     0.13500
H2960       H  0.52932302  0.66014950  0.89686703     0.13500
H2961       H  0.96360306  0.63374862  0.50624809     0.26800
H2962       H  0.52571307  0.63370352  0.50633954     0.26800
C2963       C  0.86285925  0.63653371  0.61955090     0.87100
C2964       C  0.88570026  0.65813109  0.59832427    -0.53100
C2965       C  0.90556116  0.63737676  0.58043948     0.10100
C2966       C  0.90060190  0.59713369  0.58581228     0.21000
C2967       C  0.84138752  0.61135723  0.60011402    -0.53800
C2968       C  0.86132336  0.59050572  0.58241549     0.10200
C2969       C  0.88799043  0.61239251  0.63634904    -0.53400
C2970       C  0.90774710  0.59164927  0.61868135     0.10700
H2971       H  0.88665623  0.68695191  0.59791708     0.15200
H2972       H  0.91685396  0.58013157  0.57143283     0.01000
H2973       H  0.81324093  0.61033081  0.60014263     0.15500
H2974       H  0.88953308  0.61121425  0.66003790     0.15300
N2975       N  0.84928113  0.00064110  0.55249349    -0.36000
N2976       N  0.84590714  0.94673178  0.50776577    -0.56500
N2977       N  0.85109974  0.00047669  0.96284609    -0.36000
N2978       N  0.84594326  0.55444379  0.50763324    -0.56500
C2979       C  0.84129319  0.97181858  0.56876283     0.27600
C2980       C  0.84133053  0.52954326  0.56866416     0.27600
C2981       C  0.84152774  0.97164216  0.94722337     0.27600
C2982       C  0.84159657  0.52929089  0.94716357     0.27600
C2983       C  0.84551039  0.92513746  0.53133026     0.36200
C2984       C  0.84637220  0.92502762  0.98426749     0.36200
C2985       C  0.84567853  0.57611687  0.53114121     0.36200
C2986       C  0.84651762  0.57605259  0.98407613     0.36200
C2987       C  0.82696673  0.98241381  0.59503395    -0.21300
C2988       C  0.82699594  0.51909645  0.59497324    -0.21300
C2989       C  0.82432555  0.98212011  0.92217706    -0.21200
C2990       C  0.82437637  0.51879226  0.92213494    -0.21200
C2991       C  0.84246818  0.89019556  0.52277504    -0.22300
C2992       C  0.84300945  0.89013516  0.99280834    -0.22300
C2993       C  0.84280247  0.61105110  0.52249723    -0.22300
C2994       C  0.84333759  0.61100459  0.99252082    -0.22300
C2995       C  0.84735804  0.93634190  0.56055992    -0.17700
C2996       C  0.84754704  0.56495792  0.56038869    -0.17700
C2997       C  0.84857349  0.56466937  0.95493931    -0.17700
C2998       C  0.84838920  0.93626145  0.95508675    -0.17700
H2999       H  0.81715701  0.96543878  0.61223161     0.15300
H3000       H  0.81723707  0.53617052  0.61212189     0.15300
H3001       H  0.81272186  0.96508701  0.90583341     0.15300
H3002       H  0.81282672  0.53581327  0.90574880     0.15300
H3003       H  0.83854222  0.86751594  0.53685110     0.13500
H3004       H  0.83936272  0.86745680  0.97869464     0.13500
H3005       H  0.83901719  0.63379849  0.53652056     0.13500
H3006       H  0.83986320  0.63366425  0.97834363     0.13500
H3007       H  0.86360827  0.00059539  0.53322361     0.26800
H3008       H  0.86697451  0.00048995  0.98128138     0.26800
C3009       C  0.83916450  0.84480278  0.87488288    -0.12600
C3010       C  0.82258711  0.82977231  0.85628324    -0.14200
C3011       C  0.83988484  0.65622084  0.87487217    -0.12600
C3012       C  0.82335822  0.67144789  0.85636627    -0.14200
C3013       C  0.66518482  0.82895311  0.85611917    -0.12600
C3014       C  0.64870355  0.84403171  0.87475459    -0.14200
C3015       C  0.82502800  0.82688540  0.65787523    -0.12600
C3016       C  0.84091923  0.84253826  0.63924358    -0.14200
C3017       C  0.64954255  0.65519458  0.87488022    -0.12600
C3018       C  0.66612532  0.67036126  0.85634965    -0.14200
C3019       C  0.66327816  0.82625898  0.65763363    -0.12600
C3020       C  0.64695677  0.84180128  0.63917336    -0.14200
C3021       C  0.82582101  0.67360827  0.65807755    -0.12600
C3022       C  0.84193037  0.65810809  0.63948601    -0.14200
C3023       C  0.64803605  0.65709445  0.63930727    -0.12600
C3024       C  0.66432206  0.67250751  0.65785954    -0.14200
loop_ 
_geom_bond_atom_site_label_1 
_geom_bond_atom_site_label_2 
_geom_bond_distance 
_geom_bond_site_symmetry_2 
_ccdc_geom_bond_type 
O1          Zr13   2.451       .  S
O1            C3   1.288       .  A
O2          Zr39   2.411       .  S
O2            C3   1.282       .  A
C3          C378   1.433       .  S
O4          Zr16   2.452       .  S
O4            C6   1.289       .  A
O5          Zr40   2.413       .  S
O5            C6   1.282       .  A
C6          C367   1.434       .  S
O7          Zr16   2.450       .  S
O7            C9   1.288       .  A
O8          Zr39   2.414       .  S
O8            C9   1.282       .  A
C9          C373   1.433       .  S
O10         Zr13   2.451       .  S
O10          C12   1.288       .  A
O11         Zr40   2.415       .  S
O11          C12   1.283       .  A
C12         C372   1.435       .  S
Zr13         O14   2.433       .  S
Zr13         O15   2.435       .  S
Zr13         O19   2.373       .  S
Zr13         O20   2.372       .  S
Zr13         O43   2.374       .  S
Zr13         O45   2.374       .  S
O14          H57   0.990       .  S
O15          H56   0.990       .  S
O15          H60   0.990       .  S
Zr16         O17   2.435       .  S
Zr16         O18   2.434       .  S
Zr16         O20   2.372       .  S
Zr16         O19   2.373       .  S
Zr16         O44   2.373       .  S
Zr16         O46   2.375       .  S
O17          H58   0.990       .  S
O17          H61   0.990       .  S
O18          H51   0.990       .  S
O19         Zr39   2.378       .  S
O20         Zr40   2.383       .  S
O20          H47   0.965       .  S
O21         Zr33   2.450       .  S
O21          C23   1.288       .  A
O22         Zr40   2.413       .  S
O22          C23   1.282       .  A
C23         C366   1.433       .  S
O24         Zr36   2.449       .  S
O24          C26   1.288       .  A
O25         Zr39   2.410       .  S
O25          C26   1.282       .  A
C26         C369   1.432       .  S
O27         Zr36   2.452       .  S
O27          C29   1.289       .  A
O28         Zr40   2.415       .  S
O28          C29   1.283       .  A
C29         C364   1.434       .  S
O30         Zr33   2.448       .  S
O30          C32   1.288       .  A
O31         Zr39   2.412       .  S
O31          C32   1.282       .  A
C32         C375   1.432       .  S
Zr33         O34   2.436       .  S
Zr33         O35   2.434       .  S
Zr33         O41   2.372       .  S
Zr33         O42   2.372       .  S
Zr33         O45   2.372       .  S
Zr33         O43   2.374       .  S
O34          H54   0.990       .  S
O34          H59   0.990       .  S
O35          H55   0.990       .  S
Zr36         O37   2.434       .  S
Zr36         O38   2.434       .  S
Zr36         O42   2.373       .  S
Zr36         O41   2.373       .  S
Zr36         O46   2.373       .  S
Zr36         O44   2.372       .  S
O37          H53   0.990       .  S
O38          H52   0.990       .  S
O38          H62   0.990       .  S
Zr39         O42   2.378       .  S
Zr39         O44   2.383       .  S
Zr39         O45   2.382       .  S
Zr40         O41   2.383       .  S
Zr40         O43   2.380       .  S
Zr40         O46   2.380       .  S
O41          H49   0.965       .  S
O44          H48   0.965       .  S
O45          H50   0.966       .  S
C63          C64   1.543       .  S
C63          C69   1.535       .  S
C63          C67   1.541       .  S
C63         C363   1.466       .  S
C64          H71   1.086       .  S
C64          C65   1.367       .  D
C65          C66   1.546       .  S
C65         C190   1.497       .  S
C66          C70   1.543       .  S
C66          C68   1.546       .  S
C66          H72   1.111       .  S
C67          H73   1.086       .  S
C67          C68   1.365       .  D
C68         C352   1.494       .  S
C69          H74   1.086       .  S
C69          C70   1.358       .  D
C70         C132   1.484       .  S
C75          C76   1.535       .  S
C75          C81   1.543       .  S
C75          C79   1.540       .  S
C75         C365   1.465       .  S
C76          H83   1.086       .  S
C76          C77   1.359       .  D
C77          C78   1.543       .  S
C77         C133   1.485       .  S
C78          C82   1.547       .  S
C78          C80   1.546       .  S
C78          H84   1.111       .  S
C79          H85   1.086       .  S
C79          C80   1.364       .  D
C80         C351   1.494       .  S
C81          H86   1.086       .  S
C81          C82   1.367       .  D
C82         C304   1.497       .  S
C87          C88   1.540       .  S
C87          C93   1.535       .  S
C87          C91   1.544       .  S
C87         C368   1.466       .  S
C88          H95   1.086       .  S
C88          C89   1.364       .  D
C89          C90   1.545       .  S
C89         C271   1.493       .  S
C90          C94   1.543       .  S
C90          C92   1.546       .  S
C90          H96   1.111       .  S
C91          H97   1.086       .  S
C91          C92   1.367       .  D
C92         C191   1.498       .  S
C93          H98   1.086       .  S
C93          C94   1.358       .  D
C94         C131   1.485       .  S
C99         C100   1.535       .  S
C99         C105   1.540       .  S
C99         C103   1.544       .  S
C99         C371   1.466       .  S
C100        H107   1.086       .  S
C100        C101   1.359       .  D
C101        C102   1.543       .  S
C101        C134   1.484       .  S
C102        C106   1.545       .  S
C102        C104   1.546       .  S
C102        H108   1.111       .  S
C103        H109   1.086       .  S
C103        C104   1.367       .  D
C104        C305   1.498       .  S
C105        H110   1.086       .  S
C105        C106   1.364       .  D
C106        C272   1.492       .  S
N111        C116   1.348       .  A
N111       C1627   1.348       .  A
N111        H143   1.042       .  S
N112        C120   1.349   1_565  A
N112        C875   1.349       .  A
N113        C118   1.348       .  A
N113       C1629   1.348       .  A
N113        H144   1.042       .  S
N114        C122   1.349       .  A
N114        C877   1.348   1_545  A
C115       N1623   1.348   1_455  A
C115        C123   1.381       .  A
C115        C131   1.399       .  A
C116        C132   1.398       .  A
C116        C124   1.381       .  A
C117       N1625   1.348   1_455  A
C117        C125   1.381       .  A
C117        C134   1.398       .  A
C118        C133   1.399       .  A
C118        C126   1.381       .  A
C119        N868   1.349       .  A
C119        C131   1.401       .  A
C119        C127   1.377       .  A
C120        C134   1.401       .  A
C120        C128   1.377       .  A
C121        N870   1.348       .  A
C121        C129   1.377       .  A
C121        C132   1.400       .  A
C122        C130   1.377       .  A
C122        C133   1.400       .  A
C123       C1636   1.379   1_455  A
C123        H135   1.082       .  S
C124       C1635   1.379       .  A
C124        H136   1.082       .  S
C125       C1638   1.379   1_455  A
C125        H137   1.082       .  S
C126       C1637   1.379       .  A
C126        H138   1.082       .  S
C127        C884   1.372       .  A
C127        H139   1.080       .  S
C128        C883   1.372   1_545  A
C128        H140   1.080       .  S
C129        C886   1.372       .  A
C129        H141   1.080       .  S
C130        C885   1.372   1_545  A
C130        H142   1.080       .  S
C145        C146   1.542       .  S
C145        C151   1.535       .  S
C145        C149   1.542       .  S
C145        C370   1.463       .  S
C146        H153   1.086       .  S
C146        C147   1.365       .  D
C147        C148   1.543       .  S
C147        C349   1.492       .  S
C148        C152   1.542       .  S
C148        C150   1.547       .  S
C148        H154   1.111       .  S
C149        H155   1.086       .  S
C149        C150   1.366       .  D
C150        C189   1.497       .  S
C151        H156   1.086       .  S
C151        C152   1.358       .  D
C152        C235   1.483       .  S
C157        C158   1.535       .  S
C157        C163   1.541       .  S
C157        C161   1.542       .  S
C157        C374   1.465       .  S
C158        H165   1.086       .  S
C158        C159   1.359       .  D
C159        C160   1.542       .  S
C159        C238   1.483       .  S
C160        C164   1.543       .  S
C160        C162   1.547       .  S
C160        H166   1.112       .  S
C161        H167   1.086       .  S
C161        C162   1.366       .  D
C162        C192   1.497       .  S
C163        H168   1.086       .  S
C163        C164   1.365       .  D
C164        C270   1.491       .  S
N169        C173   1.351       .  A
N169        C552   1.351   1_554  A
N169        H201   1.042       .  S
N170        C177   1.351       .  A
N170       C1690   1.351       .  A
N171        C175   1.351       .  A
N171        C554   1.351   1_554  A
N171        H202   1.042       .  S
N172        C179   1.352       .  A
N172       C1692   1.353       .  A
C173        C181   1.382       .  A
C173        C189   1.405       .  A
C174        N547   1.351       .  A
C174        C190   1.404       .  A
C174        C182   1.382       .  A
C175        C183   1.382       .  A
C175        C192   1.405       .  A
C176        N549   1.351       .  A
C176        C191   1.405       .  A
C176        C184   1.382       .  A
C177        C189   1.405       .  A
C177        C185   1.376       .  A
C178       N1682   1.351   1_455  A
C178        C192   1.405       .  A
C178        C186   1.376       .  A
C179        C187   1.377       .  A
C179        C190   1.408       .  A
C180       N1684   1.353   1_455  A
C180        C188   1.377       .  A
C180        C191   1.408       .  A
C181        C560   1.381   1_554  A
C181        H193   1.082       .  S
C182        C559   1.381       .  A
C182        H194   1.082       .  S
C183        C562   1.381   1_554  A
C183        H195   1.082       .  S
C184        C561   1.381       .  A
C184        H196   1.082       .  S
C185       C1698   1.373       .  A
C185        H197   1.080       .  S
C186       C1697   1.373   1_455  A
C186        H198   1.080       .  S
C187       C1700   1.374       .  A
C187        H199   1.080       .  S
C188       C1699   1.374   1_455  A
C188        H200   1.080       .  S
C203        C204   1.541       .  S
C203        C209   1.536       .  S
C203        C207   1.543       .  S
C203        C377   1.465       .  S
C204        H211   1.086       .  S
C204        C205   1.365       .  D
C205        C206   1.542       .  S
C205        C269   1.490       .  S
C206        C210   1.543       .  S
C206        C208   1.547       .  S
C206        H212   1.111       .  S
C207        H213   1.086       .  S
C207        C208   1.367       .  D
C208        C306   1.498       .  S
C209        H214   1.086       .  S
C209        C210   1.359       .  D
C210        C237   1.485       .  S
N215        C219   1.347       .  A
N215        C976   1.347       .  A
N215        H247   1.033       .  S
N216        C223   1.345       .  A
N216       C1736   1.345       .  A
N217        C222   1.348   1_565  A
N217        C977   1.348       .  A
N217        H248   1.033       .  S
N218        C225   1.345       .  A
N218       C1738   1.345       .  A
C219        C227   1.380       .  A
C219        C235   1.404       .  A
C220        N971   1.347       .  A
C220        C236   1.404       .  A
C220        C228   1.380       .  A
C221        N973   1.348       .  A
C221        C229   1.380       .  A
C221        C238   1.405       .  A
C222        C237   1.406       .  A
C222        C230   1.380       .  A
C223        C235   1.403       .  A
C223        C231   1.380       .  A
C224       N1728   1.345   1_455  A
C224        C238   1.403       .  A
C224        C232   1.380       .  A
C225        C233   1.380       .  A
C225        C236   1.403       .  A
C226       N1730   1.345   1_455  A
C226        C234   1.380       .  A
C226        C237   1.403       .  A
C227        C984   1.379       .  A
C227        H239   1.081       .  S
C228        C983   1.379   1_545  A
C228        H240   1.081       .  S
C229        C986   1.380       .  A
C229        H241   1.081       .  S
C230        C985   1.380   1_545  A
C230        H242   1.081       .  S
C231       C1744   1.377       .  A
C231        H243   1.082       .  S
C232       C1743   1.377   1_455  A
C232        H244   1.081       .  S
C233       C1746   1.377       .  A
C233        H245   1.081       .  S
C234       C1745   1.377   1_455  A
C234        H246   1.081       .  S
C236        C324   1.483       .  S
N249        C253   1.351   1_565  A
N249       C1010   1.351       .  A
N249        H281   1.041       .  S
N250        C257   1.350       .  A
N250        C636   1.350   1_554  A
N251        C255   1.351   1_565  A
N251       C1012   1.351       .  A
N251        H282   1.042       .  S
N252        C259   1.350       .  A
N252        C638   1.350   1_554  A
C253        C261   1.382       .  A
C253        C269   1.407       .  A
C254       N1005   1.351       .  A
C254        C270   1.407       .  A
C254        C262   1.382       .  A
C255        C263   1.381       .  A
C255        C272   1.404       .  A
C256       N1007   1.351       .  A
C256        C271   1.404       .  A
C256        C264   1.381       .  A
C257        C269   1.403       .  A
C257        C265   1.378       .  A
C258        N628   1.350       .  A
C258        C272   1.401       .  A
C258        C266   1.377       .  A
C259        C267   1.378       .  A
C259        C270   1.404       .  A
C260        N630   1.350       .  A
C260        C268   1.377       .  A
C260        C271   1.402       .  A
C261       C1018   1.381   1_545  A
C261        H273   1.082       .  S
C262       C1017   1.381       .  A
C262        H274   1.082       .  S
C263       C1020   1.380   1_545  A
C263        H275   1.082       .  S
C264       C1019   1.380       .  A
C264        H276   1.082       .  S
C265        C644   1.371   1_554  A
C265        H277   1.080       .  S
C266        C643   1.371       .  A
C266        H278   1.080       .  S
C267        C646   1.371   1_554  A
C267        H279   1.080       .  S
C268        C645   1.371       .  A
C268        H280   1.080       .  S
N283        C287   1.351       .  A
N283        C666   1.351   1_554  A
N283        H315   1.042       .  S
N284        C291   1.351       .  A
N284       C1804   1.351       .  A
N285        C289   1.352       .  A
N285        C668   1.351   1_554  A
N285        H316   1.042       .  S
N286        C293   1.353       .  A
N286       C1806   1.353       .  A
C287        C295   1.382       .  A
C287        C303   1.405       .  A
C288        N661   1.351       .  A
C288        C304   1.405       .  A
C288        C296   1.382       .  A
C289        C297   1.382       .  A
C289        C306   1.406       .  A
C290        N663   1.351       .  A
C290        C305   1.405       .  A
C290        C298   1.382       .  A
C291        C303   1.405       .  A
C291        C299   1.376       .  A
C292       N1796   1.351   1_455  A
C292        C306   1.405       .  A
C292        C300   1.376       .  A
C293        C301   1.378       .  A
C293        C304   1.408       .  A
C294       N1798   1.353   1_455  A
C294        C302   1.378       .  A
C294        C305   1.408       .  A
C295        C674   1.381   1_554  A
C295        H307   1.082       .  S
C296        C673   1.381       .  A
C296        H308   1.082       .  S
C297        C676   1.381   1_554  A
C297        H309   1.082       .  S
C298        C675   1.381       .  A
C298        H310   1.082       .  S
C299       C1812   1.373       .  A
C299        H311   1.080       .  S
C300       C1811   1.373   1_455  A
C300        H312   1.080       .  S
C301       C1814   1.375       .  A
C301        H313   1.080       .  S
C302       C1813   1.375   1_455  A
C302        H314   1.080       .  S
C303        C319   1.497       .  S
C317        C318   1.543       .  S
C317        C323   1.535       .  S
C317        C321   1.541       .  S
C317        C376   1.464       .  S
C318        H325   1.086       .  S
C318        C319   1.366       .  D
C319        C320   1.547       .  S
C320        C324   1.543       .  S
C320        C322   1.543       .  S
C320        H326   1.111       .  S
C321        H327   1.086       .  S
C321        C322   1.365       .  D
C322        C350   1.491       .  S
C323        H328   1.087       .  S
C323        C324   1.358       .  D
N329        C333   1.351       .  A
N329       C1090   1.351       .  A
N329        H361   1.041       .  S
N330        C337   1.350       .  A
N330        C716   1.351   1_554  A
N331        C335   1.351       .  A
N331       C1092   1.351       .  A
N331        H362   1.042       .  S
N332        C339   1.350       .  A
N332        C718   1.351   1_554  A
C333        C341   1.382       .  A
C333        C349   1.407       .  A
C334       N1085   1.351       .  A
C334        C350   1.407       .  A
C334        C342   1.382       .  A
C335        C343   1.382       .  A
C335        C352   1.405       .  A
C336       N1087   1.351       .  A
C336        C351   1.405       .  A
C336        C344   1.382       .  A
C337        C349   1.404       .  A
C337        C345   1.378       .  A
C338        N708   1.351       .  A
C338        C352   1.403       .  A
C338        C346   1.377       .  A
C339        C347   1.378       .  A
C339        C350   1.404       .  A
C340        N710   1.351       .  A
C340        C348   1.377       .  A
C340        C351   1.403       .  A
C341       C1098   1.381       .  A
C341        H353   1.082       .  S
C342       C1097   1.381   1_545  A
C342        H354   1.082       .  S
C343       C1100   1.381       .  A
C343        H355   1.082       .  S
C344       C1099   1.381   1_545  A
C344        H356   1.082       .  S
C345        C724   1.371   1_554  A
C345        H357   1.080       .  S
C346        C723   1.371       .  A
C346        H358   1.080       .  S
C347        C726   1.372   1_554  A
C347        H359   1.080       .  S
C348        C725   1.372       .  A
C348        H360   1.080       .  S
C363        C364   1.206       .  T
C365        C366   1.205       .  T
C367        C368   1.206       .  T
C369        C370   1.204       .  T
C371        C372   1.206       .  T
C373        C374   1.205       .  T
C375        C376   1.204       .  T
C377        C378   1.205       .  T
O379       Zr391   2.451       .  S
O379        C381   1.288       .  A
O380       Zr417   2.411       .  S
O380        C381   1.282       .  A
C381        C756   1.433       .  S
O382       Zr394   2.452       .  S
O382        C384   1.289       .  A
O383       Zr418   2.413       .  S
O383        C384   1.282       .  A
C384        C745   1.434       .  S
O385       Zr394   2.450       .  S
O385        C387   1.288       .  A
O386       Zr417   2.414       .  S
O386        C387   1.282       .  A
C387        C751   1.433       .  S
O388       Zr391   2.451       .  S
O388        C390   1.288       .  A
O389       Zr418   2.415       .  S
O389        C390   1.283       .  A
C390        C750   1.435       .  S
Zr391       O392   2.433       .  S
Zr391       O393   2.435       .  S
Zr391       O397   2.373       .  S
Zr391       O398   2.372       .  S
Zr391       O421   2.374       .  S
Zr391       O423   2.374       .  S
O392        H435   0.990       .  S
O393        H434   0.990       .  S
O393        H438   0.990       .  S
Zr394       O395   2.435       .  S
Zr394       O396   2.434       .  S
Zr394       O398   2.372       .  S
Zr394       O397   2.373       .  S
Zr394       O422   2.373       .  S
Zr394       O424   2.375       .  S
O395        H436   0.990       .  S
O395        H439   0.990       .  S
O396        H429   0.990       .  S
O397       Zr417   2.378       .  S
O398       Zr418   2.383       .  S
O398        H425   0.965       .  S
O399       Zr411   2.450       .  S
O399        C401   1.288       .  A
O400       Zr418   2.413       .  S
O400        C401   1.282       .  A
C401        C744   1.433       .  S
O402       Zr414   2.449       .  S
O402        C404   1.288       .  A
O403       Zr417   2.410       .  S
O403        C404   1.282       .  A
C404        C747   1.432       .  S
O405       Zr414   2.452       .  S
O405        C407   1.289       .  A
O406       Zr418   2.415       .  S
O406        C407   1.283       .  A
C407        C742   1.434       .  S
O408       Zr411   2.448       .  S
O408        C410   1.288       .  A
O409       Zr417   2.412       .  S
O409        C410   1.282       .  A
C410        C753   1.432       .  S
Zr411       O412   2.436       .  S
Zr411       O413   2.434       .  S
Zr411       O419   2.372       .  S
Zr411       O420   2.372       .  S
Zr411       O423   2.372       .  S
Zr411       O421   2.374       .  S
O412        H432   0.990       .  S
O412        H437   0.990       .  S
O413        H433   0.990       .  S
Zr414       O415   2.434       .  S
Zr414       O416   2.434       .  S
Zr414       O420   2.373       .  S
Zr414       O419   2.373       .  S
Zr414       O424   2.373       .  S
Zr414       O422   2.372       .  S
O415        H431   0.990       .  S
O416        H430   0.990       .  S
O416        H440   0.990       .  S
Zr417       O420   2.378       .  S
Zr417       O422   2.383       .  S
Zr417       O423   2.382       .  S
Zr418       O419   2.383       .  S
Zr418       O421   2.380       .  S
Zr418       O424   2.380       .  S
O419        H427   0.965       .  S
O422        H426   0.965       .  S
O423        H428   0.966       .  S
C441        C442   1.543       .  S
C441        C447   1.535       .  S
C441        C445   1.541       .  S
C441        C741   1.466       .  S
C442        H449   1.086       .  S
C442        C443   1.367       .  D
C443        C444   1.546       .  S
C443        C568   1.497       .  S
C444        C448   1.543       .  S
C444        C446   1.546       .  S
C444        H450   1.111       .  S
C445        H451   1.086       .  S
C445        C446   1.365       .  D
C446        C730   1.494       .  S
C447        H452   1.086       .  S
C447        C448   1.358       .  D
C448        C510   1.484       .  S
C453        C454   1.535       .  S
C453        C459   1.543       .  S
C453        C457   1.540       .  S
C453        C743   1.465       .  S
C454        H461   1.086       .  S
C454        C455   1.359       .  D
C455        C456   1.543       .  S
C455        C511   1.485       .  S
C456        C460   1.547       .  S
C456        C458   1.546       .  S
C456        H462   1.111       .  S
C457        H463   1.086       .  S
C457        C458   1.364       .  D
C458        C729   1.494       .  S
C459        H464   1.086       .  S
C459        C460   1.367       .  D
C460        C682   1.497       .  S
C465        C466   1.540       .  S
C465        C471   1.535       .  S
C465        C469   1.544       .  S
C465        C746   1.466       .  S
C466        H473   1.086       .  S
C466        C467   1.364       .  D
C467        C468   1.545       .  S
C467        C649   1.493       .  S
C468        C472   1.543       .  S
C468        C470   1.546       .  S
C468        H474   1.111       .  S
C469        H475   1.086       .  S
C469        C470   1.367       .  D
C470        C569   1.498       .  S
C471        H476   1.086       .  S
C471        C472   1.358       .  D
C472        C509   1.485       .  S
C477        C478   1.535       .  S
C477        C483   1.540       .  S
C477        C481   1.544       .  S
C477        C749   1.466       .  S
C478        H485   1.086       .  S
C478        C479   1.359       .  D
C479        C480   1.543       .  S
C479        C512   1.484       .  S
C480        C484   1.545       .  S
C480        C482   1.546       .  S
C480        H486   1.111       .  S
C481        H487   1.086       .  S
C481        C482   1.367       .  D
C482        C683   1.498       .  S
C483        H488   1.086       .  S
C483        C484   1.364       .  D
C484        C650   1.492       .  S
N489        C494   1.348       .  A
N489       C2005   1.348       .  A
N489        H521   1.042       .  S
N490       C1253   1.349       .  A
N490        C498   1.349   1_565  A
N491        C496   1.348       .  A
N491       C2007   1.348       .  A
N491        H522   1.042       .  S
N492       C1255   1.348   1_545  A
N492        C500   1.349       .  A
C493       N2001   1.348   1_455  A
C493        C501   1.381       .  A
C493        C509   1.399       .  A
C494        C510   1.398       .  A
C494        C502   1.381       .  A
C495       N2003   1.348   1_455  A
C495        C503   1.381       .  A
C495        C512   1.398       .  A
C496        C511   1.399       .  A
C496        C504   1.381       .  A
C497       N1246   1.349       .  A
C497        C509   1.401       .  A
C497        C505   1.377       .  A
C498        C512   1.401       .  A
C498        C506   1.377       .  A
C499       N1248   1.348       .  A
C499        C507   1.377       .  A
C499        C510   1.400       .  A
C500        C508   1.377       .  A
C500        C511   1.400       .  A
C501       C2014   1.379   1_455  A
C501        H513   1.082       .  S
C502       C2013   1.379       .  A
C502        H514   1.082       .  S
C503       C2016   1.379   1_455  A
C503        H515   1.082       .  S
C504       C2015   1.379       .  A
C504        H516   1.082       .  S
C505       C1262   1.372       .  A
C505        H517   1.080       .  S
C506       C1261   1.372   1_545  A
C506        H518   1.080       .  S
C507       C1264   1.372       .  A
C507        H519   1.080       .  S
C508       C1263   1.372   1_545  A
C508        H520   1.080       .  S
C523        C524   1.542       .  S
C523        C529   1.535       .  S
C523        C527   1.542       .  S
C523        C748   1.463       .  S
C524        H531   1.086       .  S
C524        C525   1.365       .  D
C525        C526   1.543       .  S
C525        C727   1.492       .  S
C526        C530   1.542       .  S
C526        C528   1.547       .  S
C526        H532   1.111       .  S
C527        H533   1.086       .  S
C527        C528   1.366       .  D
C528        C567   1.497       .  S
C529        H534   1.086       .  S
C529        C530   1.358       .  D
C530        C613   1.483       .  S
C535        C536   1.535       .  S
C535        C541   1.541       .  S
C535        C539   1.542       .  S
C535        C752   1.465       .  S
C536        H543   1.086       .  S
C536        C537   1.359       .  D
C537        C538   1.542       .  S
C537        C616   1.483       .  S
C538        C542   1.543       .  S
C538        C540   1.547       .  S
C538        H544   1.112       .  S
C539        H545   1.086       .  S
C539        C540   1.366       .  D
C540        C570   1.497       .  S
C541        H546   1.086       .  S
C541        C542   1.365       .  D
C542        C648   1.491       .  S
N547        C551   1.351       .  A
N547        H579   1.042       .  S
N548        C555   1.351       .  A
N548       C2068   1.351       .  A
N549        C553   1.351       .  A
N549        H580   1.042       .  S
N550        C557   1.352       .  A
N550       C2070   1.353       .  A
C551        C559   1.382       .  A
C551        C567   1.405       .  A
C552        C568   1.404       .  A
C552        C560   1.382       .  A
C553        C561   1.382       .  A
C553        C570   1.405       .  A
C554        C569   1.405       .  A
C554        C562   1.382       .  A
C555        C567   1.405       .  A
C555        C563   1.376       .  A
C556       N2060   1.351   1_455  A
C556        C570   1.405       .  A
C556        C564   1.376       .  A
C557        C565   1.377       .  A
C557        C568   1.408       .  A
C558       N2062   1.353   1_455  A
C558        C566   1.377       .  A
C558        C569   1.408       .  A
C559        H571   1.082       .  S
C560        H572   1.082       .  S
C561        H573   1.082       .  S
C562        H574   1.082       .  S
C563       C2076   1.373       .  A
C563        H575   1.080       .  S
C564       C2075   1.373   1_455  A
C564        H576   1.080       .  S
C565       C2078   1.374       .  A
C565        H577   1.080       .  S
C566       C2077   1.374   1_455  A
C566        H578   1.080       .  S
C581        C582   1.541       .  S
C581        C587   1.536       .  S
C581        C585   1.543       .  S
C581        C755   1.465       .  S
C582        H589   1.086       .  S
C582        C583   1.365       .  D
C583        C584   1.542       .  S
C583        C647   1.490       .  S
C584        C588   1.543       .  S
C584        C586   1.547       .  S
C584        H590   1.111       .  S
C585        H591   1.086       .  S
C585        C586   1.367       .  D
C586        C684   1.498       .  S
C587        H592   1.086       .  S
C587        C588   1.359       .  D
C588        C615   1.485       .  S
N593       C1354   1.347       .  A
N593        C597   1.347       .  A
N593        H625   1.033       .  S
N594        C601   1.345       .  A
N594       C2114   1.345       .  A
N595        C600   1.348   1_565  A
N595       C1355   1.348       .  A
N595        H626   1.033       .  S
N596        C603   1.345       .  A
N596       C2116   1.345       .  A
C597        C605   1.380       .  A
C597        C613   1.404       .  A
C598       N1349   1.347       .  A
C598        C614   1.404       .  A
C598        C606   1.380       .  A
C599       N1351   1.348       .  A
C599        C607   1.380       .  A
C599        C616   1.405       .  A
C600        C615   1.406       .  A
C600        C608   1.380       .  A
C601        C613   1.403       .  A
C601        C609   1.380       .  A
C602       N2106   1.345   1_455  A
C602        C616   1.403       .  A
C602        C610   1.380       .  A
C603        C611   1.380       .  A
C603        C614   1.403       .  A
C604       N2108   1.345   1_455  A
C604        C612   1.380       .  A
C604        C615   1.403       .  A
C605       C1362   1.379       .  A
C605        H617   1.081       .  S
C606       C1361   1.379   1_545  A
C606        H618   1.081       .  S
C607       C1364   1.380       .  A
C607        H619   1.081       .  S
C608       C1363   1.380   1_545  A
C608        H620   1.081       .  S
C609       C2122   1.377       .  A
C609        H621   1.082       .  S
C610       C2121   1.377   1_455  A
C610        H622   1.081       .  S
C611       C2124   1.377       .  A
C611        H623   1.081       .  S
C612       C2123   1.377   1_455  A
C612        H624   1.081       .  S
C614        C702   1.483       .  S
N627       C1388   1.351       .  A
N627        C631   1.351   1_565  A
N627        H659   1.041       .  S
N628        C635   1.350       .  A
N629       C1390   1.351       .  A
N629        C633   1.351   1_565  A
N629        H660   1.042       .  S
N630        C637   1.350       .  A
C631        C639   1.382       .  A
C631        C647   1.407       .  A
C632       N1383   1.351       .  A
C632        C648   1.407       .  A
C632        C640   1.382       .  A
C633        C641   1.381       .  A
C633        C650   1.404       .  A
C634       N1385   1.351       .  A
C634        C649   1.404       .  A
C634        C642   1.381       .  A
C635        C647   1.403       .  A
C635        C643   1.378       .  A
C636        C650   1.401       .  A
C636        C644   1.377       .  A
C637        C645   1.378       .  A
C637        C648   1.404       .  A
C638        C646   1.377       .  A
C638        C649   1.402       .  A
C639       C1396   1.381   1_545  A
C639        H651   1.082       .  S
C640       C1395   1.381       .  A
C640        H652   1.082       .  S
C641       C1398   1.380   1_545  A
C641        H653   1.082       .  S
C642       C1397   1.380       .  A
C642        H654   1.082       .  S
C643        H655   1.080       .  S
C644        H656   1.080       .  S
C645        H657   1.080       .  S
C646        H658   1.080       .  S
N661        C665   1.351       .  A
N661        H693   1.042       .  S
N662        C669   1.351       .  A
N662       C2182   1.351       .  A
N663        C667   1.352       .  A
N663        H694   1.042       .  S
N664        C671   1.353       .  A
N664       C2184   1.353       .  A
C665        C673   1.382       .  A
C665        C681   1.405       .  A
C666        C682   1.405       .  A
C666        C674   1.382       .  A
C667        C675   1.382       .  A
C667        C684   1.406       .  A
C668        C683   1.405       .  A
C668        C676   1.382       .  A
C669        C681   1.405       .  A
C669        C677   1.376       .  A
C670       N2174   1.351   1_455  A
C670        C684   1.405       .  A
C670        C678   1.376       .  A
C671        C679   1.378       .  A
C671        C682   1.408       .  A
C672       N2176   1.353   1_455  A
C672        C680   1.378       .  A
C672        C683   1.408       .  A
C673        H685   1.082       .  S
C674        H686   1.082       .  S
C675        H687   1.082       .  S
C676        H688   1.082       .  S
C677       C2190   1.373       .  A
C677        H689   1.080       .  S
C678       C2189   1.373   1_455  A
C678        H690   1.080       .  S
C679       C2192   1.375       .  A
C679        H691   1.080       .  S
C680       C2191   1.375   1_455  A
C680        H692   1.080       .  S
C681        C697   1.497       .  S
C695        C696   1.543       .  S
C695        C701   1.535       .  S
C695        C699   1.541       .  S
C695        C754   1.464       .  S
C696        H703   1.086       .  S
C696        C697   1.366       .  D
C697        C698   1.547       .  S
C698        C702   1.543       .  S
C698        C700   1.543       .  S
C698        H704   1.111       .  S
C699        H705   1.086       .  S
C699        C700   1.365       .  D
C700        C728   1.491       .  S
C701        H706   1.087       .  S
C701        C702   1.358       .  D
N707       C1468   1.351       .  A
N707        C711   1.351       .  A
N707        H739   1.041       .  S
N708        C715   1.350       .  A
N709       C1470   1.351       .  A
N709        C713   1.351       .  A
N709        H740   1.042       .  S
N710        C717   1.350       .  A
C711        C719   1.382       .  A
C711        C727   1.407       .  A
C712       N1463   1.351       .  A
C712        C728   1.407       .  A
C712        C720   1.382       .  A
C713        C721   1.382       .  A
C713        C730   1.405       .  A
C714       N1465   1.351       .  A
C714        C729   1.405       .  A
C714        C722   1.382       .  A
C715        C727   1.404       .  A
C715        C723   1.378       .  A
C716        C730   1.403       .  A
C716        C724   1.377       .  A
C717        C725   1.378       .  A
C717        C728   1.404       .  A
C718        C726   1.377       .  A
C718        C729   1.403       .  A
C719       C1476   1.381       .  A
C719        H731   1.082       .  S
C720       C1475   1.381   1_545  A
C720        H732   1.082       .  S
C721       C1478   1.381       .  A
C721        H733   1.082       .  S
C722       C1477   1.381   1_545  A
C722        H734   1.082       .  S
C723        H735   1.080       .  S
C724        H736   1.080       .  S
C725        H737   1.080       .  S
C726        H738   1.080       .  S
C741        C742   1.206       .  T
C743        C744   1.205       .  T
C745        C746   1.206       .  T
C747        C748   1.204       .  T
C749        C750   1.206       .  T
C751        C752   1.205       .  T
C753        C754   1.204       .  T
C755        C756   1.205       .  T
O757       Zr769   2.451       .  S
O757        C759   1.288       .  A
O758       Zr795   2.411       .  S
O758        C759   1.282       .  A
C759       C1134   1.433       .  S
O760       Zr772   2.452       .  S
O760        C762   1.289       .  A
O761       Zr796   2.413       .  S
O761        C762   1.282       .  A
C762       C1123   1.434       .  S
O763       Zr772   2.450       .  S
O763        C765   1.288       .  A
O764       Zr795   2.414       .  S
O764        C765   1.282       .  A
C765       C1129   1.433       .  S
O766       Zr769   2.451       .  S
O766        C768   1.288       .  A
O767       Zr796   2.415       .  S
O767        C768   1.283       .  A
C768       C1128   1.435       .  S
Zr769       O770   2.433       .  S
Zr769       O771   2.435       .  S
Zr769       O775   2.373       .  S
Zr769       O776   2.372       .  S
Zr769       O799   2.374       .  S
Zr769       O801   2.374       .  S
O770        H813   0.990       .  S
O771        H812   0.990       .  S
O771        H816   0.990       .  S
Zr772       O773   2.435       .  S
Zr772       O774   2.434       .  S
Zr772       O776   2.372       .  S
Zr772       O775   2.373       .  S
Zr772       O800   2.373       .  S
Zr772       O802   2.375       .  S
O773        H814   0.990       .  S
O773        H817   0.990       .  S
O774        H807   0.990       .  S
O775       Zr795   2.378       .  S
O776       Zr796   2.383       .  S
O776        H803   0.965       .  S
O777       Zr789   2.450       .  S
O777        C779   1.288       .  A
O778       Zr796   2.413       .  S
O778        C779   1.282       .  A
C779       C1122   1.433       .  S
O780       Zr792   2.449       .  S
O780        C782   1.288       .  A
O781       Zr795   2.410       .  S
O781        C782   1.282       .  A
C782       C1125   1.432       .  S
O783       Zr792   2.452       .  S
O783        C785   1.289       .  A
O784       Zr796   2.415       .  S
O784        C785   1.283       .  A
C785       C1120   1.434       .  S
O786       Zr789   2.448       .  S
O786        C788   1.288       .  A
O787       Zr795   2.412       .  S
O787        C788   1.282       .  A
C788       C1131   1.432       .  S
Zr789       O790   2.436       .  S
Zr789       O791   2.434       .  S
Zr789       O797   2.372       .  S
Zr789       O798   2.372       .  S
Zr789       O801   2.372       .  S
Zr789       O799   2.374       .  S
O790        H810   0.990       .  S
O790        H815   0.990       .  S
O791        H811   0.990       .  S
Zr792       O793   2.434       .  S
Zr792       O794   2.434       .  S
Zr792       O798   2.373       .  S
Zr792       O797   2.373       .  S
Zr792       O802   2.373       .  S
Zr792       O800   2.372       .  S
O793        H809   0.990       .  S
O794        H808   0.990       .  S
O794        H818   0.990       .  S
Zr795       O798   2.378       .  S
Zr795       O800   2.383       .  S
Zr795       O801   2.382       .  S
Zr796       O797   2.383       .  S
Zr796       O799   2.380       .  S
Zr796       O802   2.380       .  S
O797        H805   0.965       .  S
O800        H804   0.965       .  S
O801        H806   0.966       .  S
C819        C820   1.543       .  S
C819        C825   1.535       .  S
C819        C823   1.541       .  S
C819       C1119   1.466       .  S
C820        H827   1.086       .  S
C820        C821   1.367       .  D
C821        C822   1.546       .  S
C821        C946   1.497       .  S
C822        C826   1.543       .  S
C822        C824   1.546       .  S
C822        H828   1.111       .  S
C823        H829   1.086       .  S
C823        C824   1.365       .  D
C824       C1108   1.494       .  S
C825        H830   1.086       .  S
C825        C826   1.358       .  D
C826        C888   1.484       .  S
C831        C832   1.535       .  S
C831        C837   1.543       .  S
C831        C835   1.540       .  S
C831       C1121   1.465       .  S
C832        H839   1.086       .  S
C832        C833   1.359       .  D
C833        C834   1.543       .  S
C833        C889   1.485       .  S
C834        C838   1.547       .  S
C834        C836   1.546       .  S
C834        H840   1.111       .  S
C835        H841   1.086       .  S
C835        C836   1.364       .  D
C836       C1107   1.494       .  S
C837        H842   1.086       .  S
C837        C838   1.367       .  D
C838       C1060   1.497       .  S
C843        C844   1.540       .  S
C843        C849   1.535       .  S
C843        C847   1.544       .  S
C843       C1124   1.466       .  S
C844        H851   1.086       .  S
C844        C845   1.364       .  D
C845        C846   1.545       .  S
C845       C1027   1.493       .  S
C846        C850   1.543       .  S
C846        C848   1.546       .  S
C846        H852   1.111       .  S
C847        H853   1.086       .  S
C847        C848   1.367       .  D
C848        C947   1.498       .  S
C849        H854   1.086       .  S
C849        C850   1.358       .  D
C850        C887   1.485       .  S
C855        C856   1.535       .  S
C855        C861   1.540       .  S
C855        C859   1.544       .  S
C855       C1127   1.466       .  S
C856        H863   1.086       .  S
C856        C857   1.359       .  D
C857        C858   1.543       .  S
C857        C890   1.484       .  S
C858        C862   1.545       .  S
C858        C860   1.546       .  S
C858        H864   1.111       .  S
C859        H865   1.086       .  S
C859        C860   1.367       .  D
C860       C1061   1.498       .  S
C861        H866   1.086       .  S
C861        C862   1.364       .  D
C862       C1028   1.492       .  S
N867        C872   1.348       .  A
N867       C2383   1.348       .  A
N867        H899   1.042       .  S
N868        C876   1.349       .  A
N869        C874   1.348       .  A
N869       C2385   1.348       .  A
N869        H900   1.042       .  S
N870        C878   1.349       .  A
C871       N2379   1.348   1_455  A
C871        C879   1.381       .  A
C871        C887   1.399       .  A
C872        C888   1.398       .  A
C872        C880   1.381       .  A
C873       N2381   1.348   1_455  A
C873        C881   1.381       .  A
C873        C890   1.398       .  A
C874        C889   1.399       .  A
C874        C882   1.381       .  A
C875        C887   1.401       .  A
C875        C883   1.377       .  A
C876        C890   1.401       .  A
C876        C884   1.377       .  A
C877        C885   1.377       .  A
C877        C888   1.400       .  A
C878        C886   1.377       .  A
C878        C889   1.400       .  A
C879       C2392   1.379   1_455  A
C879        H891   1.082       .  S
C880       C2391   1.379       .  A
C880        H892   1.082       .  S
C881       C2394   1.379   1_455  A
C881        H893   1.082       .  S
C882       C2393   1.379       .  A
C882        H894   1.082       .  S
C883        H895   1.080       .  S
C884        H896   1.080       .  S
C885        H897   1.080       .  S
C886        H898   1.080       .  S
C901        C902   1.542       .  S
C901        C907   1.535       .  S
C901        C905   1.542       .  S
C901       C1126   1.463       .  S
C902        H909   1.086       .  S
C902        C903   1.365       .  D
C903        C904   1.543       .  S
C903       C1105   1.492       .  S
C904        C908   1.542       .  S
C904        C906   1.547       .  S
C904        H910   1.111       .  S
C905        H911   1.086       .  S
C905        C906   1.366       .  D
C906        C945   1.497       .  S
C907        H912   1.086       .  S
C907        C908   1.358       .  D
C908        C991   1.483       .  S
C913        C914   1.535       .  S
C913        C919   1.541       .  S
C913        C917   1.542       .  S
C913       C1130   1.465       .  S
C914        H921   1.086       .  S
C914        C915   1.359       .  D
C915        C916   1.542       .  S
C915        C994   1.483       .  S
C916        C920   1.543       .  S
C916        C918   1.547       .  S
C916        H922   1.112       .  S
C917        H923   1.086       .  S
C917        C918   1.366       .  D
C918        C948   1.497       .  S
C919        H924   1.086       .  S
C919        C920   1.365       .  D
C920       C1026   1.491       .  S
N925       C1308   1.351   1_554  A
N925        C929   1.351       .  A
N925        H957   1.042       .  S
N926        C933   1.351       .  A
N926       C2446   1.351       .  A
N927       C1310   1.351   1_554  A
N927        C931   1.351       .  A
N927        H958   1.042       .  S
N928        C935   1.352       .  A
N928       C2448   1.353       .  A
C929        C937   1.382       .  A
C929        C945   1.405       .  A
C930       N1303   1.351       .  A
C930        C946   1.404       .  A
C930        C938   1.382       .  A
C931        C939   1.382       .  A
C931        C948   1.405       .  A
C932       N1305   1.351       .  A
C932        C947   1.405       .  A
C932        C940   1.382       .  A
C933        C945   1.405       .  A
C933        C941   1.376       .  A
C934       N2438   1.351   1_455  A
C934        C948   1.405       .  A
C934        C942   1.376       .  A
C935        C943   1.377       .  A
C935        C946   1.408       .  A
C936       N2440   1.353   1_455  A
C936        C944   1.377       .  A
C936        C947   1.408       .  A
C937       C1316   1.381   1_554  A
C937        H949   1.082       .  S
C938       C1315   1.381       .  A
C938        H950   1.082       .  S
C939       C1318   1.381   1_554  A
C939        H951   1.082       .  S
C940       C1317   1.381       .  A
C940        H952   1.082       .  S
C941       C2454   1.373       .  A
C941        H953   1.080       .  S
C942       C2453   1.373   1_455  A
C942        H954   1.080       .  S
C943       C2456   1.374       .  A
C943        H955   1.080       .  S
C944       C2455   1.374   1_455  A
C944        H956   1.080       .  S
C959        C960   1.541       .  S
C959        C965   1.536       .  S
C959        C963   1.543       .  S
C959       C1133   1.465       .  S
C960        H967   1.086       .  S
C960        C961   1.365       .  D
C961        C962   1.542       .  S
C961       C1025   1.490       .  S
C962        C966   1.543       .  S
C962        C964   1.547       .  S
C962        H968   1.111       .  S
C963        H969   1.086       .  S
C963        C964   1.367       .  D
C964       C1062   1.498       .  S
C965        H970   1.086       .  S
C965        C966   1.359       .  D
C966        C993   1.485       .  S
N971        C975   1.347   1_545  A
N971       H1003   1.033   1_545  S
N972        C979   1.345       .  A
N972       C2492   1.345       .  A
N973        C978   1.348       .  A
N973       H1004   1.033       .  S
N974        C981   1.345       .  A
N974       C2494   1.345       .  A
C975        C983   1.380       .  A
C975        C991   1.404       .  A
C976        C992   1.404       .  A
C976        C984   1.380       .  A
C977        C985   1.380       .  A
C977        C994   1.405       .  A
C978        C993   1.406       .  A
C978        C986   1.380       .  A
C979        C991   1.403       .  A
C979        C987   1.380       .  A
C980       N2484   1.345   1_455  A
C980        C994   1.403       .  A
C980        C988   1.380       .  A
C981        C989   1.380       .  A
C981        C992   1.403       .  A
C982       N2486   1.345   1_455  A
C982        C990   1.380       .  A
C982        C993   1.403       .  A
C983        H995   1.081       .  S
C984        H996   1.081       .  S
C985        H997   1.081       .  S
C986        H998   1.081       .  S
C987       C2500   1.377       .  A
C987        H999   1.082       .  S
C988       C2499   1.377   1_455  A
C988       H1000   1.081       .  S
C989       C2502   1.377       .  A
C989       H1001   1.081       .  S
C990       C2501   1.377   1_455  A
C990       H1002   1.081       .  S
C992       C1080   1.483       .  S
N1005      C1009   1.351       .  A
N1005      H1037   1.041       .  S
N1006      C1013   1.350       .  A
N1006      C1392   1.350   1_554  A
N1007      C1011   1.351       .  A
N1007      H1038   1.042       .  S
N1008      C1015   1.350       .  A
N1008      C1394   1.350   1_554  A
C1009      C1017   1.382       .  A
C1009      C1025   1.407       .  A
C1010      C1026   1.407       .  A
C1010      C1018   1.382       .  A
C1011      C1019   1.381       .  A
C1011      C1028   1.404       .  A
C1012      C1027   1.404       .  A
C1012      C1020   1.381       .  A
C1013      C1025   1.403       .  A
C1013      C1021   1.378       .  A
C1014      N1384   1.350       .  A
C1014      C1028   1.401       .  A
C1014      C1022   1.377       .  A
C1015      C1023   1.378       .  A
C1015      C1026   1.404       .  A
C1016      N1386   1.350       .  A
C1016      C1024   1.377       .  A
C1016      C1027   1.402       .  A
C1017      H1029   1.082       .  S
C1018      H1030   1.082       .  S
C1019      H1031   1.082       .  S
C1020      H1032   1.082       .  S
C1021      C1400   1.371   1_554  A
C1021      H1033   1.080       .  S
C1022      C1399   1.371       .  A
C1022      H1034   1.080       .  S
C1023      C1402   1.371   1_554  A
C1023      H1035   1.080       .  S
C1024      C1401   1.371       .  A
C1024      H1036   1.080       .  S
N1039      C1422   1.351   1_554  A
N1039      C1043   1.351       .  A
N1039      H1071   1.042       .  S
N1040      C1047   1.351       .  A
N1040      C2560   1.351       .  A
N1041      C1424   1.351   1_554  A
N1041      C1045   1.352       .  A
N1041      H1072   1.042       .  S
N1042      C1049   1.353       .  A
N1042      C2562   1.353       .  A
C1043      C1051   1.382       .  A
C1043      C1059   1.405       .  A
C1044      N1417   1.351       .  A
C1044      C1060   1.405       .  A
C1044      C1052   1.382       .  A
C1045      C1053   1.382       .  A
C1045      C1062   1.406       .  A
C1046      N1419   1.351       .  A
C1046      C1061   1.405       .  A
C1046      C1054   1.382       .  A
C1047      C1059   1.405       .  A
C1047      C1055   1.376       .  A
C1048      N2552   1.351   1_455  A
C1048      C1062   1.405       .  A
C1048      C1056   1.376       .  A
C1049      C1057   1.378       .  A
C1049      C1060   1.408       .  A
C1050      N2554   1.353   1_455  A
C1050      C1058   1.378       .  A
C1050      C1061   1.408       .  A
C1051      C1430   1.381   1_554  A
C1051      H1063   1.082       .  S
C1052      C1429   1.381       .  A
C1052      H1064   1.082       .  S
C1053      C1432   1.381   1_554  A
C1053      H1065   1.082       .  S
C1054      C1431   1.381       .  A
C1054      H1066   1.082       .  S
C1055      C2568   1.373       .  A
C1055      H1067   1.080       .  S
C1056      C2567   1.373   1_455  A
C1056      H1068   1.080       .  S
C1057      C2570   1.375       .  A
C1057      H1069   1.080       .  S
C1058      C2569   1.375   1_455  A
C1058      H1070   1.080       .  S
C1059      C1075   1.497       .  S
C1073      C1074   1.543       .  S
C1073      C1079   1.535       .  S
C1073      C1077   1.541       .  S
C1073      C1132   1.464       .  S
C1074      H1081   1.086       .  S
C1074      C1075   1.366       .  D
C1075      C1076   1.547       .  S
C1076      C1080   1.543       .  S
C1076      C1078   1.543       .  S
C1076      H1082   1.111       .  S
C1077      H1083   1.086       .  S
C1077      C1078   1.365       .  D
C1078      C1106   1.491       .  S
C1079      H1084   1.087       .  S
C1079      C1080   1.358       .  D
N1085      C1089   1.351   1_545  A
N1085      H1117   1.041       .  S
N1086      C1093   1.350       .  A
N1086      C1472   1.351   1_554  A
N1087      C1091   1.351   1_545  A
N1087      H1118   1.042       .  S
N1088      C1095   1.350       .  A
N1088      C1474   1.351   1_554  A
C1089      C1097   1.382       .  A
C1089      C1105   1.407       .  A
C1090      C1106   1.407       .  A
C1090      C1098   1.382       .  A
C1091      C1099   1.382       .  A
C1091      C1108   1.405       .  A
C1092      C1107   1.405       .  A
C1092      C1100   1.382       .  A
C1093      C1105   1.404       .  A
C1093      C1101   1.378       .  A
C1094      N1464   1.351       .  A
C1094      C1108   1.403       .  A
C1094      C1102   1.377       .  A
C1095      C1103   1.378       .  A
C1095      C1106   1.404       .  A
C1096      N1466   1.351       .  A
C1096      C1104   1.377       .  A
C1096      C1107   1.403       .  A
C1097      H1109   1.082       .  S
C1098      H1110   1.082       .  S
C1099      H1111   1.082       .  S
C1100      H1112   1.082       .  S
C1101      C1480   1.371   1_554  A
C1101      H1113   1.080       .  S
C1102      C1479   1.371       .  A
C1102      H1114   1.080       .  S
C1103      C1482   1.372   1_554  A
C1103      H1115   1.080       .  S
C1104      C1481   1.372       .  A
C1104      H1116   1.080       .  S
C1119      C1120   1.206       .  T
C1121      C1122   1.205       .  T
C1123      C1124   1.206       .  T
C1125      C1126   1.204       .  T
C1127      C1128   1.206       .  T
C1129      C1130   1.205       .  T
C1131      C1132   1.204       .  T
C1133      C1134   1.205       .  T
O1135     Zr1147   2.451       .  S
O1135      C1137   1.288       .  A
O1136     Zr1173   2.411       .  S
O1136      C1137   1.282       .  A
C1137      C1512   1.433       .  S
O1138     Zr1150   2.452       .  S
O1138      C1140   1.289       .  A
O1139     Zr1174   2.413       .  S
O1139      C1140   1.282       .  A
C1140      C1501   1.434       .  S
O1141     Zr1150   2.450       .  S
O1141      C1143   1.288       .  A
O1142     Zr1173   2.414       .  S
O1142      C1143   1.282       .  A
C1143      C1507   1.433       .  S
O1144     Zr1147   2.451       .  S
O1144      C1146   1.288       .  A
O1145     Zr1174   2.415       .  S
O1145      C1146   1.283       .  A
C1146      C1506   1.435       .  S
Zr1147     O1148   2.433       .  S
Zr1147     O1149   2.435       .  S
Zr1147     O1153   2.373       .  S
Zr1147     O1154   2.372       .  S
Zr1147     O1177   2.374       .  S
Zr1147     O1179   2.374       .  S
O1148      H1191   0.990       .  S
O1149      H1190   0.990       .  S
O1149      H1194   0.990       .  S
Zr1150     O1151   2.435       .  S
Zr1150     O1152   2.434       .  S
Zr1150     O1154   2.372       .  S
Zr1150     O1153   2.373       .  S
Zr1150     O1178   2.373       .  S
Zr1150     O1180   2.375       .  S
O1151      H1192   0.990       .  S
O1151      H1195   0.990       .  S
O1152      H1185   0.990       .  S
O1153     Zr1173   2.378       .  S
O1154     Zr1174   2.383       .  S
O1154      H1181   0.965       .  S
O1155     Zr1167   2.450       .  S
O1155      C1157   1.288       .  A
O1156     Zr1174   2.413       .  S
O1156      C1157   1.282       .  A
C1157      C1500   1.433       .  S
O1158     Zr1170   2.449       .  S
O1158      C1160   1.288       .  A
O1159     Zr1173   2.410       .  S
O1159      C1160   1.282       .  A
C1160      C1503   1.432       .  S
O1161     Zr1170   2.452       .  S
O1161      C1163   1.289       .  A
O1162     Zr1174   2.415       .  S
O1162      C1163   1.283       .  A
C1163      C1498   1.434       .  S
O1164     Zr1167   2.448       .  S
O1164      C1166   1.288       .  A
O1165     Zr1173   2.412       .  S
O1165      C1166   1.282       .  A
C1166      C1509   1.432       .  S
Zr1167     O1168   2.436       .  S
Zr1167     O1169   2.434       .  S
Zr1167     O1175   2.372       .  S
Zr1167     O1176   2.372       .  S
Zr1167     O1179   2.372       .  S
Zr1167     O1177   2.374       .  S
O1168      H1188   0.990       .  S
O1168      H1193   0.990       .  S
O1169      H1189   0.990       .  S
Zr1170     O1171   2.434       .  S
Zr1170     O1172   2.434       .  S
Zr1170     O1176   2.373       .  S
Zr1170     O1175   2.373       .  S
Zr1170     O1180   2.373       .  S
Zr1170     O1178   2.372       .  S
O1171      H1187   0.990       .  S
O1172      H1186   0.990       .  S
O1172      H1196   0.990       .  S
Zr1173     O1176   2.378       .  S
Zr1173     O1178   2.383       .  S
Zr1173     O1179   2.382       .  S
Zr1174     O1175   2.383       .  S
Zr1174     O1177   2.380       .  S
Zr1174     O1180   2.380       .  S
O1175      H1183   0.965       .  S
O1178      H1182   0.965       .  S
O1179      H1184   0.966       .  S
C1197      C1198   1.543       .  S
C1197      C1203   1.535       .  S
C1197      C1201   1.541       .  S
C1197      C1497   1.466       .  S
C1198      H1205   1.086       .  S
C1198      C1199   1.367       .  D
C1199      C1200   1.546       .  S
C1199      C1324   1.497       .  S
C1200      C1204   1.543       .  S
C1200      C1202   1.546       .  S
C1200      H1206   1.111       .  S
C1201      H1207   1.086       .  S
C1201      C1202   1.365       .  D
C1202      C1486   1.494       .  S
C1203      H1208   1.086       .  S
C1203      C1204   1.358       .  D
C1204      C1266   1.484       .  S
C1209      C1210   1.535       .  S
C1209      C1215   1.543       .  S
C1209      C1213   1.540       .  S
C1209      C1499   1.465       .  S
C1210      H1217   1.086       .  S
C1210      C1211   1.359       .  D
C1211      C1212   1.543       .  S
C1211      C1267   1.485       .  S
C1212      C1216   1.547       .  S
C1212      C1214   1.546       .  S
C1212      H1218   1.111       .  S
C1213      H1219   1.086       .  S
C1213      C1214   1.364       .  D
C1214      C1485   1.494       .  S
C1215      H1220   1.086       .  S
C1215      C1216   1.367       .  D
C1216      C1438   1.497       .  S
C1221      C1222   1.540       .  S
C1221      C1227   1.535       .  S
C1221      C1225   1.544       .  S
C1221      C1502   1.466       .  S
C1222      H1229   1.086       .  S
C1222      C1223   1.364       .  D
C1223      C1224   1.545       .  S
C1223      C1405   1.493       .  S
C1224      C1228   1.543       .  S
C1224      C1226   1.546       .  S
C1224      H1230   1.111       .  S
C1225      H1231   1.086       .  S
C1225      C1226   1.367       .  D
C1226      C1325   1.498       .  S
C1227      H1232   1.086       .  S
C1227      C1228   1.358       .  D
C1228      C1265   1.485       .  S
C1233      C1234   1.535       .  S
C1233      C1239   1.540       .  S
C1233      C1237   1.544       .  S
C1233      C1505   1.466       .  S
C1234      H1241   1.086       .  S
C1234      C1235   1.359       .  D
C1235      C1236   1.543       .  S
C1235      C1268   1.484       .  S
C1236      C1240   1.545       .  S
C1236      C1238   1.546       .  S
C1236      H1242   1.111       .  S
C1237      H1243   1.086       .  S
C1237      C1238   1.367       .  D
C1238      C1439   1.498       .  S
C1239      H1244   1.086       .  S
C1239      C1240   1.364       .  D
C1240      C1406   1.492       .  S
N1245      C1250   1.348       .  A
N1245      C2761   1.348       .  A
N1245      H1277   1.042       .  S
N1246      C1254   1.349       .  A
N1247      C1252   1.348       .  A
N1247      C2763   1.348       .  A
N1247      H1278   1.042       .  S
N1248      C1256   1.349       .  A
C1249      N2757   1.348   1_455  A
C1249      C1257   1.381       .  A
C1249      C1265   1.399       .  A
C1250      C1266   1.398       .  A
C1250      C1258   1.381       .  A
C1251      N2759   1.348   1_455  A
C1251      C1259   1.381       .  A
C1251      C1268   1.398       .  A
C1252      C1267   1.399       .  A
C1252      C1260   1.381       .  A
C1253      C1265   1.401       .  A
C1253      C1261   1.377       .  A
C1254      C1268   1.401       .  A
C1254      C1262   1.377       .  A
C1255      C1263   1.377       .  A
C1255      C1266   1.400       .  A
C1256      C1264   1.377       .  A
C1256      C1267   1.400       .  A
C1257      C2770   1.379   1_455  A
C1257      H1269   1.082       .  S
C1258      C2769   1.379       .  A
C1258      H1270   1.082       .  S
C1259      C2772   1.379   1_455  A
C1259      H1271   1.082       .  S
C1260      C2771   1.379       .  A
C1260      H1272   1.082       .  S
C1261      H1273   1.080       .  S
C1262      H1274   1.080       .  S
C1263      H1275   1.080       .  S
C1264      H1276   1.080       .  S
C1279      C1280   1.542       .  S
C1279      C1285   1.535       .  S
C1279      C1283   1.542       .  S
C1279      C1504   1.463       .  S
C1280      H1287   1.086       .  S
C1280      C1281   1.365       .  D
C1281      C1282   1.543       .  S
C1281      C1483   1.492       .  S
C1282      C1286   1.542       .  S
C1282      C1284   1.547       .  S
C1282      H1288   1.111       .  S
C1283      H1289   1.086       .  S
C1283      C1284   1.366       .  D
C1284      C1323   1.497       .  S
C1285      H1290   1.086       .  S
C1285      C1286   1.358       .  D
C1286      C1369   1.483       .  S
C1291      C1292   1.535       .  S
C1291      C1297   1.541       .  S
C1291      C1295   1.542       .  S
C1291      C1508   1.465       .  S
C1292      H1299   1.086       .  S
C1292      C1293   1.359       .  D
C1293      C1294   1.542       .  S
C1293      C1372   1.483       .  S
C1294      C1298   1.543       .  S
C1294      C1296   1.547       .  S
C1294      H1300   1.112       .  S
C1295      H1301   1.086       .  S
C1295      C1296   1.366       .  D
C1296      C1326   1.497       .  S
C1297      H1302   1.086       .  S
C1297      C1298   1.365       .  D
C1298      C1404   1.491       .  S
N1303      C1307   1.351       .  A
N1303      H1335   1.042       .  S
N1304      C1311   1.351       .  A
N1304      C2824   1.351       .  A
N1305      C1309   1.351       .  A
N1305      H1336   1.042       .  S
N1306      C1313   1.352       .  A
N1306      C2826   1.353       .  A
C1307      C1315   1.382       .  A
C1307      C1323   1.405       .  A
C1308      C1324   1.404       .  A
C1308      C1316   1.382       .  A
C1309      C1317   1.382       .  A
C1309      C1326   1.405       .  A
C1310      C1325   1.405       .  A
C1310      C1318   1.382       .  A
C1311      C1323   1.405       .  A
C1311      C1319   1.376       .  A
C1312      N2816   1.351   1_455  A
C1312      C1326   1.405       .  A
C1312      C1320   1.376       .  A
C1313      C1321   1.377       .  A
C1313      C1324   1.408       .  A
C1314      N2818   1.353   1_455  A
C1314      C1322   1.377       .  A
C1314      C1325   1.408       .  A
C1315      H1327   1.082       .  S
C1316      H1328   1.082       .  S
C1317      H1329   1.082       .  S
C1318      H1330   1.082       .  S
C1319      C2832   1.373       .  A
C1319      H1331   1.080       .  S
C1320      C2831   1.373   1_455  A
C1320      H1332   1.080       .  S
C1321      C2834   1.374       .  A
C1321      H1333   1.080       .  S
C1322      C2833   1.374   1_455  A
C1322      H1334   1.080       .  S
C1337      C1338   1.541       .  S
C1337      C1343   1.536       .  S
C1337      C1341   1.543       .  S
C1337      C1511   1.465       .  S
C1338      H1345   1.086       .  S
C1338      C1339   1.365       .  D
C1339      C1340   1.542       .  S
C1339      C1403   1.490       .  S
C1340      C1344   1.543       .  S
C1340      C1342   1.547       .  S
C1340      H1346   1.111       .  S
C1341      H1347   1.086       .  S
C1341      C1342   1.367       .  D
C1342      C1440   1.498       .  S
C1343      H1348   1.086       .  S
C1343      C1344   1.359       .  D
C1344      C1371   1.485       .  S
N1349      C1353   1.347   1_545  A
N1349      H1381   1.033   1_545  S
N1350      C1357   1.345       .  A
N1350      C2870   1.345       .  A
N1351      C1356   1.348       .  A
N1351      H1382   1.033       .  S
N1352      C1359   1.345       .  A
N1352      C2872   1.345       .  A
C1353      C1361   1.380       .  A
C1353      C1369   1.404       .  A
C1354      C1370   1.404       .  A
C1354      C1362   1.380       .  A
C1355      C1363   1.380       .  A
C1355      C1372   1.405       .  A
C1356      C1371   1.406       .  A
C1356      C1364   1.380       .  A
C1357      C1369   1.403       .  A
C1357      C1365   1.380       .  A
C1358      N2862   1.345   1_455  A
C1358      C1372   1.403       .  A
C1358      C1366   1.380       .  A
C1359      C1367   1.380       .  A
C1359      C1370   1.403       .  A
C1360      N2864   1.345   1_455  A
C1360      C1368   1.380       .  A
C1360      C1371   1.403       .  A
C1361      H1373   1.081       .  S
C1362      H1374   1.081       .  S
C1363      H1375   1.081       .  S
C1364      H1376   1.081       .  S
C1365      C2878   1.377       .  A
C1365      H1377   1.082       .  S
C1366      C2877   1.377   1_455  A
C1366      H1378   1.081       .  S
C1367      C2880   1.377       .  A
C1367      H1379   1.081       .  S
C1368      C2879   1.377   1_455  A
C1368      H1380   1.081       .  S
C1370      C1458   1.483       .  S
N1383      C1387   1.351       .  A
N1383      H1415   1.041       .  S
N1384      C1391   1.350       .  A
N1385      C1389   1.351       .  A
N1385      H1416   1.042       .  S
N1386      C1393   1.350       .  A
C1387      C1395   1.382       .  A
C1387      C1403   1.407       .  A
C1388      C1404   1.407       .  A
C1388      C1396   1.382       .  A
C1389      C1397   1.381       .  A
C1389      C1406   1.404       .  A
C1390      C1405   1.404       .  A
C1390      C1398   1.381       .  A
C1391      C1403   1.403       .  A
C1391      C1399   1.378       .  A
C1392      C1406   1.401       .  A
C1392      C1400   1.377       .  A
C1393      C1401   1.378       .  A
C1393      C1404   1.404       .  A
C1394      C1402   1.377       .  A
C1394      C1405   1.402       .  A
C1395      H1407   1.082       .  S
C1396      H1408   1.082       .  S
C1397      H1409   1.082       .  S
C1398      H1410   1.082       .  S
C1399      H1411   1.080       .  S
C1400      H1412   1.080       .  S
C1401      H1413   1.080       .  S
C1402      H1414   1.080       .  S
N1417      C1421   1.351       .  A
N1417      H1449   1.042       .  S
N1418      C1425   1.351       .  A
N1418      C2938   1.351       .  A
N1419      C1423   1.352       .  A
N1419      H1450   1.042       .  S
N1420      C1427   1.353       .  A
N1420      C2940   1.353       .  A
C1421      C1429   1.382       .  A
C1421      C1437   1.405       .  A
C1422      C1438   1.405       .  A
C1422      C1430   1.382       .  A
C1423      C1431   1.382       .  A
C1423      C1440   1.406       .  A
C1424      C1439   1.405       .  A
C1424      C1432   1.382       .  A
C1425      C1437   1.405       .  A
C1425      C1433   1.376       .  A
C1426      N2930   1.351   1_455  A
C1426      C1440   1.405       .  A
C1426      C1434   1.376       .  A
C1427      C1435   1.378       .  A
C1427      C1438   1.408       .  A
C1428      N2932   1.353   1_455  A
C1428      C1436   1.378       .  A
C1428      C1439   1.408       .  A
C1429      H1441   1.082       .  S
C1430      H1442   1.082       .  S
C1431      H1443   1.082       .  S
C1432      H1444   1.082       .  S
C1433      C2946   1.373       .  A
C1433      H1445   1.080       .  S
C1434      C2945   1.373   1_455  A
C1434      H1446   1.080       .  S
C1435      C2948   1.375       .  A
C1435      H1447   1.080       .  S
C1436      C2947   1.375   1_455  A
C1436      H1448   1.080       .  S
C1437      C1453   1.497       .  S
C1451      C1452   1.543       .  S
C1451      C1457   1.535       .  S
C1451      C1455   1.541       .  S
C1451      C1510   1.464       .  S
C1452      H1459   1.086       .  S
C1452      C1453   1.366       .  D
C1453      C1454   1.547       .  S
C1454      C1458   1.543       .  S
C1454      C1456   1.543       .  S
C1454      H1460   1.111       .  S
C1455      H1461   1.086       .  S
C1455      C1456   1.365       .  D
C1456      C1484   1.491       .  S
C1457      H1462   1.087       .  S
C1457      C1458   1.358       .  D
N1463      C1467   1.351   1_545  A
N1463      H1495   1.041       .  S
N1464      C1471   1.350       .  A
N1465      C1469   1.351   1_545  A
N1465      H1496   1.042       .  S
N1466      C1473   1.350       .  A
C1467      C1475   1.382       .  A
C1467      C1483   1.407       .  A
C1468      C1484   1.407       .  A
C1468      C1476   1.382       .  A
C1469      C1477   1.382       .  A
C1469      C1486   1.405       .  A
C1470      C1485   1.405       .  A
C1470      C1478   1.382       .  A
C1471      C1483   1.404       .  A
C1471      C1479   1.378       .  A
C1472      C1486   1.403       .  A
C1472      C1480   1.377       .  A
C1473      C1481   1.378       .  A
C1473      C1484   1.404       .  A
C1474      C1482   1.377       .  A
C1474      C1485   1.403       .  A
C1475      H1487   1.082       .  S
C1476      H1488   1.082       .  S
C1477      H1489   1.082       .  S
C1478      H1490   1.082       .  S
C1479      H1491   1.080       .  S
C1480      H1492   1.080       .  S
C1481      H1493   1.080       .  S
C1482      H1494   1.080       .  S
C1497      C1498   1.206       .  T
C1499      C1500   1.205       .  T
C1501      C1502   1.206       .  T
C1503      C1504   1.204       .  T
C1505      C1506   1.206       .  T
C1507      C1508   1.205       .  T
C1509      C1510   1.204       .  T
C1511      C1512   1.205       .  T
O1513     Zr1525   2.451       .  S
O1513      C1515   1.288       .  A
O1514     Zr1551   2.411       .  S
O1514      C1515   1.282       .  A
C1515      C1890   1.433       .  S
O1516     Zr1528   2.452       .  S
O1516      C1518   1.289       .  A
O1517     Zr1552   2.413       .  S
O1517      C1518   1.282       .  A
C1518      C1879   1.434       .  S
O1519     Zr1528   2.450       .  S
O1519      C1521   1.288       .  A
O1520     Zr1551   2.414       .  S
O1520      C1521   1.282       .  A
C1521      C1885   1.433       .  S
O1522     Zr1525   2.451       .  S
O1522      C1524   1.288       .  A
O1523     Zr1552   2.415       .  S
O1523      C1524   1.283       .  A
C1524      C1884   1.435       .  S
Zr1525     O1526   2.433       .  S
Zr1525     O1527   2.435       .  S
Zr1525     O1531   2.373       .  S
Zr1525     O1532   2.372       .  S
Zr1525     O1555   2.374       .  S
Zr1525     O1557   2.374       .  S
O1526      H1569   0.990       .  S
O1527      H1568   0.990       .  S
O1527      H1572   0.990       .  S
Zr1528     O1529   2.435       .  S
Zr1528     O1530   2.434       .  S
Zr1528     O1532   2.372       .  S
Zr1528     O1531   2.373       .  S
Zr1528     O1556   2.373       .  S
Zr1528     O1558   2.375       .  S
O1529      H1570   0.990       .  S
O1529      H1573   0.990       .  S
O1530      H1563   0.990       .  S
O1531     Zr1551   2.378       .  S
O1532     Zr1552   2.383       .  S
O1532      H1559   0.965       .  S
O1533     Zr1545   2.450       .  S
O1533      C1535   1.288       .  A
O1534     Zr1552   2.413       .  S
O1534      C1535   1.282       .  A
C1535      C1878   1.433       .  S
O1536     Zr1548   2.449       .  S
O1536      C1538   1.288       .  A
O1537     Zr1551   2.410       .  S
O1537      C1538   1.282       .  A
C1538      C1881   1.432       .  S
O1539     Zr1548   2.452       .  S
O1539      C1541   1.289       .  A
O1540     Zr1552   2.415       .  S
O1540      C1541   1.283       .  A
C1541      C1876   1.434       .  S
O1542     Zr1545   2.448       .  S
O1542      C1544   1.288       .  A
O1543     Zr1551   2.412       .  S
O1543      C1544   1.282       .  A
C1544      C1887   1.432       .  S
Zr1545     O1546   2.436       .  S
Zr1545     O1547   2.434       .  S
Zr1545     O1553   2.372       .  S
Zr1545     O1554   2.372       .  S
Zr1545     O1557   2.372       .  S
Zr1545     O1555   2.374       .  S
O1546      H1566   0.990       .  S
O1546      H1571   0.990       .  S
O1547      H1567   0.990       .  S
Zr1548     O1549   2.434       .  S
Zr1548     O1550   2.434       .  S
Zr1548     O1554   2.373       .  S
Zr1548     O1553   2.373       .  S
Zr1548     O1558   2.373       .  S
Zr1548     O1556   2.372       .  S
O1549      H1565   0.990       .  S
O1550      H1564   0.990       .  S
O1550      H1574   0.990       .  S
Zr1551     O1554   2.378       .  S
Zr1551     O1556   2.383       .  S
Zr1551     O1557   2.382       .  S
Zr1552     O1553   2.383       .  S
Zr1552     O1555   2.380       .  S
Zr1552     O1558   2.380       .  S
O1553      H1561   0.965       .  S
O1556      H1560   0.965       .  S
O1557      H1562   0.966       .  S
C1575      C1576   1.543       .  S
C1575      C1581   1.535       .  S
C1575      C1579   1.541       .  S
C1575      C1875   1.466       .  S
C1576      H1583   1.086       .  S
C1576      C1577   1.367       .  D
C1577      C1578   1.546       .  S
C1577      C1702   1.497       .  S
C1578      C1582   1.543       .  S
C1578      C1580   1.546       .  S
C1578      H1584   1.111       .  S
C1579      H1585   1.086       .  S
C1579      C1580   1.365       .  D
C1580      C1864   1.494       .  S
C1581      H1586   1.086       .  S
C1581      C1582   1.358       .  D
C1582      C1644   1.484       .  S
C1587      C1588   1.535       .  S
C1587      C1593   1.543       .  S
C1587      C1591   1.540       .  S
C1587      C1877   1.465       .  S
C1588      H1595   1.086       .  S
C1588      C1589   1.359       .  D
C1589      C1590   1.543       .  S
C1589      C1645   1.485       .  S
C1590      C1594   1.547       .  S
C1590      C1592   1.546       .  S
C1590      H1596   1.111       .  S
C1591      H1597   1.086       .  S
C1591      C1592   1.364       .  D
C1592      C1863   1.494       .  S
C1593      H1598   1.086       .  S
C1593      C1594   1.367       .  D
C1594      C1816   1.497       .  S
C1599      C1600   1.540       .  S
C1599      C1605   1.535       .  S
C1599      C1603   1.544       .  S
C1599      C1880   1.466       .  S
C1600      H1607   1.086       .  S
C1600      C1601   1.364       .  D
C1601      C1602   1.545       .  S
C1601      C1783   1.493       .  S
C1602      C1606   1.543       .  S
C1602      C1604   1.546       .  S
C1602      H1608   1.111       .  S
C1603      H1609   1.086       .  S
C1603      C1604   1.367       .  D
C1604      C1703   1.498       .  S
C1605      H1610   1.086       .  S
C1605      C1606   1.358       .  D
C1606      C1643   1.485       .  S
C1611      C1612   1.535       .  S
C1611      C1617   1.540       .  S
C1611      C1615   1.544       .  S
C1611      C1883   1.466       .  S
C1612      H1619   1.086       .  S
C1612      C1613   1.359       .  D
C1613      C1614   1.543       .  S
C1613      C1646   1.484       .  S
C1614      C1618   1.545       .  S
C1614      C1616   1.546       .  S
C1614      H1620   1.111       .  S
C1615      H1621   1.086       .  S
C1615      C1616   1.367       .  D
C1616      C1817   1.498       .  S
C1617      H1622   1.086       .  S
C1617      C1618   1.364       .  D
C1618      C1784   1.492       .  S
N1623      C1628   1.348       .  A
N1623      H1655   1.042       .  S
N1624      C2387   1.349       .  A
N1624      C1632   1.349   1_565  A
N1625      C1630   1.348       .  A
N1625      H1656   1.042       .  S
N1626      C2389   1.348   1_545  A
N1626      C1634   1.349       .  A
C1627      C1635   1.381       .  A
C1627      C1643   1.399       .  A
C1628      C1644   1.398       .  A
C1628      C1636   1.381       .  A
C1629      C1637   1.381       .  A
C1629      C1646   1.398       .  A
C1630      C1645   1.399       .  A
C1630      C1638   1.381       .  A
C1631      N2380   1.349       .  A
C1631      C1643   1.401       .  A
C1631      C1639   1.377       .  A
C1632      C1646   1.401       .  A
C1632      C1640   1.377       .  A
C1633      N2382   1.348       .  A
C1633      C1641   1.377       .  A
C1633      C1644   1.400       .  A
C1634      C1642   1.377       .  A
C1634      C1645   1.400       .  A
C1635      H1647   1.082       .  S
C1636      H1648   1.082       .  S
C1637      H1649   1.082       .  S
C1638      H1650   1.082       .  S
C1639      C2396   1.372       .  A
C1639      H1651   1.080       .  S
C1640      C2395   1.372   1_545  A
C1640      H1652   1.080       .  S
C1641      C2398   1.372       .  A
C1641      H1653   1.080       .  S
C1642      C2397   1.372   1_545  A
C1642      H1654   1.080       .  S
C1657      C1658   1.542       .  S
C1657      C1663   1.535       .  S
C1657      C1661   1.542       .  S
C1657      C1882   1.463       .  S
C1658      H1665   1.086       .  S
C1658      C1659   1.365       .  D
C1659      C1660   1.543       .  S
C1659      C1861   1.492       .  S
C1660      C1664   1.542       .  S
C1660      C1662   1.547       .  S
C1660      H1666   1.111       .  S
C1661      H1667   1.086       .  S
C1661      C1662   1.366       .  D
C1662      C1701   1.497       .  S
C1663      H1668   1.086       .  S
C1663      C1664   1.358       .  D
C1664      C1747   1.483       .  S
C1669      C1670   1.535       .  S
C1669      C1675   1.541       .  S
C1669      C1673   1.542       .  S
C1669      C1886   1.465       .  S
C1670      H1677   1.086       .  S
C1670      C1671   1.359       .  D
C1671      C1672   1.542       .  S
C1671      C1750   1.483       .  S
C1672      C1676   1.543       .  S
C1672      C1674   1.547       .  S
C1672      H1678   1.112       .  S
C1673      H1679   1.086       .  S
C1673      C1674   1.366       .  D
C1674      C1704   1.497       .  S
C1675      H1680   1.086       .  S
C1675      C1676   1.365       .  D
C1676      C1782   1.491       .  S
N1681      C2064   1.351   1_554  A
N1681      C1685   1.351       .  A
N1681      H1713   1.042       .  S
N1682      C1689   1.351       .  A
N1683      C2066   1.351   1_554  A
N1683      C1687   1.351       .  A
N1683      H1714   1.042       .  S
N1684      C1691   1.352       .  A
C1685      C1693   1.382       .  A
C1685      C1701   1.405       .  A
C1686      N2059   1.351       .  A
C1686      C1702   1.404       .  A
C1686      C1694   1.382       .  A
C1687      C1695   1.382       .  A
C1687      C1704   1.405       .  A
C1688      N2061   1.351       .  A
C1688      C1703   1.405       .  A
C1688      C1696   1.382       .  A
C1689      C1701   1.405       .  A
C1689      C1697   1.376       .  A
C1690      C1704   1.405       .  A
C1690      C1698   1.376       .  A
C1691      C1699   1.377       .  A
C1691      C1702   1.408       .  A
C1692      C1700   1.377       .  A
C1692      C1703   1.408       .  A
C1693      C2072   1.381   1_554  A
C1693      H1705   1.082       .  S
C1694      C2071   1.381       .  A
C1694      H1706   1.082       .  S
C1695      C2074   1.381   1_554  A
C1695      H1707   1.082       .  S
C1696      C2073   1.381       .  A
C1696      H1708   1.082       .  S
C1697      H1709   1.080       .  S
C1698      H1710   1.080       .  S
C1699      H1711   1.080       .  S
C1700      H1712   1.080       .  S
C1715      C1716   1.541       .  S
C1715      C1721   1.536       .  S
C1715      C1719   1.543       .  S
C1715      C1889   1.465       .  S
C1716      H1723   1.086       .  S
C1716      C1717   1.365       .  D
C1717      C1718   1.542       .  S
C1717      C1781   1.490       .  S
C1718      C1722   1.543       .  S
C1718      C1720   1.547       .  S
C1718      H1724   1.111       .  S
C1719      H1725   1.086       .  S
C1719      C1720   1.367       .  D
C1720      C1818   1.498       .  S
C1721      H1726   1.086       .  S
C1721      C1722   1.359       .  D
C1722      C1749   1.485       .  S
N1727      C2488   1.347       .  A
N1727      C1731   1.347       .  A
N1727      H1759   1.033       .  S
N1728      C1735   1.345       .  A
N1729      C1734   1.348   1_565  A
N1729      C2489   1.348       .  A
N1729      H1760   1.033       .  S
N1730      C1737   1.345       .  A
C1731      C1739   1.380       .  A
C1731      C1747   1.404       .  A
C1732      N2483   1.347       .  A
C1732      C1748   1.404       .  A
C1732      C1740   1.380       .  A
C1733      N2485   1.348       .  A
C1733      C1741   1.380       .  A
C1733      C1750   1.405       .  A
C1734      C1749   1.406       .  A
C1734      C1742   1.380       .  A
C1735      C1747   1.403       .  A
C1735      C1743   1.380       .  A
C1736      C1750   1.403       .  A
C1736      C1744   1.380       .  A
C1737      C1745   1.380       .  A
C1737      C1748   1.403       .  A
C1738      C1746   1.380       .  A
C1738      C1749   1.403       .  A
C1739      C2496   1.379       .  A
C1739      H1751   1.081       .  S
C1740      C2495   1.379   1_545  A
C1740      H1752   1.081       .  S
C1741      C2498   1.380       .  A
C1741      H1753   1.081       .  S
C1742      C2497   1.380   1_545  A
C1742      H1754   1.081       .  S
C1743      H1755   1.082       .  S
C1744      H1756   1.081       .  S
C1745      H1757   1.081       .  S
C1746      H1758   1.081       .  S
C1748      C1836   1.483       .  S
N1761      C2522   1.351       .  A
N1761      C1765   1.351   1_565  A
N1761      H1793   1.041       .  S
N1762      C1769   1.350       .  A
N1762      C2148   1.350   1_554  A
N1763      C2524   1.351       .  A
N1763      C1767   1.351   1_565  A
N1763      H1794   1.042       .  S
N1764      C1771   1.350       .  A
N1764      C2150   1.350   1_554  A
C1765      C1773   1.382       .  A
C1765      C1781   1.407       .  A
C1766      N2517   1.351       .  A
C1766      C1782   1.407       .  A
C1766      C1774   1.382       .  A
C1767      C1775   1.381       .  A
C1767      C1784   1.404       .  A
C1768      N2519   1.351       .  A
C1768      C1783   1.404       .  A
C1768      C1776   1.381       .  A
C1769      C1781   1.403       .  A
C1769      C1777   1.378       .  A
C1770      N2140   1.350       .  A
C1770      C1784   1.401       .  A
C1770      C1778   1.377       .  A
C1771      C1779   1.378       .  A
C1771      C1782   1.404       .  A
C1772      N2142   1.350       .  A
C1772      C1780   1.377       .  A
C1772      C1783   1.402       .  A
C1773      C2530   1.381   1_545  A
C1773      H1785   1.082       .  S
C1774      C2529   1.381       .  A
C1774      H1786   1.082       .  S
C1775      C2532   1.380   1_545  A
C1775      H1787   1.082       .  S
C1776      C2531   1.380       .  A
C1776      H1788   1.082       .  S
C1777      C2156   1.371   1_554  A
C1777      H1789   1.080       .  S
C1778      C2155   1.371       .  A
C1778      H1790   1.080       .  S
C1779      C2158   1.371   1_554  A
C1779      H1791   1.080       .  S
C1780      C2157   1.371       .  A
C1780      H1792   1.080       .  S
N1795      C2178   1.351   1_554  A
N1795      C1799   1.351       .  A
N1795      H1827   1.042       .  S
N1796      C1803   1.351       .  A
N1797      C2180   1.351   1_554  A
N1797      C1801   1.352       .  A
N1797      H1828   1.042       .  S
N1798      C1805   1.353       .  A
C1799      C1807   1.382       .  A
C1799      C1815   1.405       .  A
C1800      N2173   1.351       .  A
C1800      C1816   1.405       .  A
C1800      C1808   1.382       .  A
C1801      C1809   1.382       .  A
C1801      C1818   1.406       .  A
C1802      N2175   1.351       .  A
C1802      C1817   1.405       .  A
C1802      C1810   1.382       .  A
C1803      C1815   1.405       .  A
C1803      C1811   1.376       .  A
C1804      C1818   1.405       .  A
C1804      C1812   1.376       .  A
C1805      C1813   1.378       .  A
C1805      C1816   1.408       .  A
C1806      C1814   1.378       .  A
C1806      C1817   1.408       .  A
C1807      C2186   1.381   1_554  A
C1807      H1819   1.082       .  S
C1808      C2185   1.381       .  A
C1808      H1820   1.082       .  S
C1809      C2188   1.381   1_554  A
C1809      H1821   1.082       .  S
C1810      C2187   1.381       .  A
C1810      H1822   1.082       .  S
C1811      H1823   1.080       .  S
C1812      H1824   1.080       .  S
C1813      H1825   1.080       .  S
C1814      H1826   1.080       .  S
C1815      C1831   1.497       .  S
C1829      C1830   1.543       .  S
C1829      C1835   1.535       .  S
C1829      C1833   1.541       .  S
C1829      C1888   1.464       .  S
C1830      H1837   1.086       .  S
C1830      C1831   1.366       .  D
C1831      C1832   1.547       .  S
C1832      C1836   1.543       .  S
C1832      C1834   1.543       .  S
C1832      H1838   1.111       .  S
C1833      H1839   1.086       .  S
C1833      C1834   1.365       .  D
C1834      C1862   1.491       .  S
C1835      H1840   1.087       .  S
C1835      C1836   1.358       .  D
N1841      C2602   1.351       .  A
N1841      C1845   1.351       .  A
N1841      H1873   1.041       .  S
N1842      C1849   1.350       .  A
N1842      C2228   1.351   1_554  A
N1843      C2604   1.351       .  A
N1843      C1847   1.351       .  A
N1843      H1874   1.042       .  S
N1844      C1851   1.350       .  A
N1844      C2230   1.351   1_554  A
C1845      C1853   1.382       .  A
C1845      C1861   1.407       .  A
C1846      N2597   1.351       .  A
C1846      C1862   1.407       .  A
C1846      C1854   1.382       .  A
C1847      C1855   1.382       .  A
C1847      C1864   1.405       .  A
C1848      N2599   1.351       .  A
C1848      C1863   1.405       .  A
C1848      C1856   1.382       .  A
C1849      C1861   1.404       .  A
C1849      C1857   1.378       .  A
C1850      N2220   1.351       .  A
C1850      C1864   1.403       .  A
C1850      C1858   1.377       .  A
C1851      C1859   1.378       .  A
C1851      C1862   1.404       .  A
C1852      N2222   1.351       .  A
C1852      C1860   1.377       .  A
C1852      C1863   1.403       .  A
C1853      C2610   1.381       .  A
C1853      H1865   1.082       .  S
C1854      C2609   1.381   1_545  A
C1854      H1866   1.082       .  S
C1855      C2612   1.381       .  A
C1855      H1867   1.082       .  S
C1856      C2611   1.381   1_545  A
C1856      H1868   1.082       .  S
C1857      C2236   1.371   1_554  A
C1857      H1869   1.080       .  S
C1858      C2235   1.371       .  A
C1858      H1870   1.080       .  S
C1859      C2238   1.372   1_554  A
C1859      H1871   1.080       .  S
C1860      C2237   1.372       .  A
C1860      H1872   1.080       .  S
C1875      C1876   1.206       .  T
C1877      C1878   1.205       .  T
C1879      C1880   1.206       .  T
C1881      C1882   1.204       .  T
C1883      C1884   1.206       .  T
C1885      C1886   1.205       .  T
C1887      C1888   1.204       .  T
C1889      C1890   1.205       .  T
O1891     Zr1903   2.451       .  S
O1891      C1893   1.288       .  A
O1892     Zr1929   2.411       .  S
O1892      C1893   1.282       .  A
C1893      C2268   1.433       .  S
O1894     Zr1906   2.452       .  S
O1894      C1896   1.289       .  A
O1895     Zr1930   2.413       .  S
O1895      C1896   1.282       .  A
C1896      C2257   1.434       .  S
O1897     Zr1906   2.450       .  S
O1897      C1899   1.288       .  A
O1898     Zr1929   2.414       .  S
O1898      C1899   1.282       .  A
C1899      C2263   1.433       .  S
O1900     Zr1903   2.451       .  S
O1900      C1902   1.288       .  A
O1901     Zr1930   2.415       .  S
O1901      C1902   1.283       .  A
C1902      C2262   1.435       .  S
Zr1903     O1904   2.433       .  S
Zr1903     O1905   2.435       .  S
Zr1903     O1909   2.373       .  S
Zr1903     O1910   2.372       .  S
Zr1903     O1933   2.374       .  S
Zr1903     O1935   2.374       .  S
O1904      H1947   0.990       .  S
O1905      H1946   0.990       .  S
O1905      H1950   0.990       .  S
Zr1906     O1907   2.435       .  S
Zr1906     O1908   2.434       .  S
Zr1906     O1910   2.372       .  S
Zr1906     O1909   2.373       .  S
Zr1906     O1934   2.373       .  S
Zr1906     O1936   2.375       .  S
O1907      H1948   0.990       .  S
O1907      H1951   0.990       .  S
O1908      H1941   0.990       .  S
O1909     Zr1929   2.378       .  S
O1910     Zr1930   2.383       .  S
O1910      H1937   0.965       .  S
O1911     Zr1923   2.450       .  S
O1911      C1913   1.288       .  A
O1912     Zr1930   2.413       .  S
O1912      C1913   1.282       .  A
C1913      C2256   1.433       .  S
O1914     Zr1926   2.449       .  S
O1914      C1916   1.288       .  A
O1915     Zr1929   2.410       .  S
O1915      C1916   1.282       .  A
C1916      C2259   1.432       .  S
O1917     Zr1926   2.452       .  S
O1917      C1919   1.289       .  A
O1918     Zr1930   2.415       .  S
O1918      C1919   1.283       .  A
C1919      C2254   1.434       .  S
O1920     Zr1923   2.448       .  S
O1920      C1922   1.288       .  A
O1921     Zr1929   2.412       .  S
O1921      C1922   1.282       .  A
C1922      C2265   1.432       .  S
Zr1923     O1924   2.436       .  S
Zr1923     O1925   2.434       .  S
Zr1923     O1931   2.372       .  S
Zr1923     O1932   2.372       .  S
Zr1923     O1935   2.372       .  S
Zr1923     O1933   2.374       .  S
O1924      H1944   0.990       .  S
O1924      H1949   0.990       .  S
O1925      H1945   0.990       .  S
Zr1926     O1927   2.434       .  S
Zr1926     O1928   2.434       .  S
Zr1926     O1932   2.373       .  S
Zr1926     O1931   2.373       .  S
Zr1926     O1936   2.373       .  S
Zr1926     O1934   2.372       .  S
O1927      H1943   0.990       .  S
O1928      H1942   0.990       .  S
O1928      H1952   0.990       .  S
Zr1929     O1932   2.378       .  S
Zr1929     O1934   2.383       .  S
Zr1929     O1935   2.382       .  S
Zr1930     O1931   2.383       .  S
Zr1930     O1933   2.380       .  S
Zr1930     O1936   2.380       .  S
O1931      H1939   0.965       .  S
O1934      H1938   0.965       .  S
O1935      H1940   0.966       .  S
C1953      C1954   1.543       .  S
C1953      C1959   1.535       .  S
C1953      C1957   1.541       .  S
C1953      C2253   1.466       .  S
C1954      H1961   1.086       .  S
C1954      C1955   1.367       .  D
C1955      C1956   1.546       .  S
C1955      C2080   1.497       .  S
C1956      C1960   1.543       .  S
C1956      C1958   1.546       .  S
C1956      H1962   1.111       .  S
C1957      H1963   1.086       .  S
C1957      C1958   1.365       .  D
C1958      C2242   1.494       .  S
C1959      H1964   1.086       .  S
C1959      C1960   1.358       .  D
C1960      C2022   1.484       .  S
C1965      C1966   1.535       .  S
C1965      C1971   1.543       .  S
C1965      C1969   1.540       .  S
C1965      C2255   1.465       .  S
C1966      H1973   1.086       .  S
C1966      C1967   1.359       .  D
C1967      C1968   1.543       .  S
C1967      C2023   1.485       .  S
C1968      C1972   1.547       .  S
C1968      C1970   1.546       .  S
C1968      H1974   1.111       .  S
C1969      H1975   1.086       .  S
C1969      C1970   1.364       .  D
C1970      C2241   1.494       .  S
C1971      H1976   1.086       .  S
C1971      C1972   1.367       .  D
C1972      C2194   1.497       .  S
C1977      C1978   1.540       .  S
C1977      C1983   1.535       .  S
C1977      C1981   1.544       .  S
C1977      C2258   1.466       .  S
C1978      H1985   1.086       .  S
C1978      C1979   1.364       .  D
C1979      C1980   1.545       .  S
C1979      C2161   1.493       .  S
C1980      C1984   1.543       .  S
C1980      C1982   1.546       .  S
C1980      H1986   1.111       .  S
C1981      H1987   1.086       .  S
C1981      C1982   1.367       .  D
C1982      C2081   1.498       .  S
C1983      H1988   1.086       .  S
C1983      C1984   1.358       .  D
C1984      C2021   1.485       .  S
C1989      C1990   1.535       .  S
C1989      C1995   1.540       .  S
C1989      C1993   1.544       .  S
C1989      C2261   1.466       .  S
C1990      H1997   1.086       .  S
C1990      C1991   1.359       .  D
C1991      C1992   1.543       .  S
C1991      C2024   1.484       .  S
C1992      C1996   1.545       .  S
C1992      C1994   1.546       .  S
C1992      H1998   1.111       .  S
C1993      H1999   1.086       .  S
C1993      C1994   1.367       .  D
C1994      C2195   1.498       .  S
C1995      H2000   1.086       .  S
C1995      C1996   1.364       .  D
C1996      C2162   1.492       .  S
N2001      C2006   1.348       .  A
N2001      H2033   1.042       .  S
N2002      C2765   1.349       .  A
N2002      C2010   1.349   1_565  A
N2003      C2008   1.348       .  A
N2003      H2034   1.042       .  S
N2004      C2767   1.348   1_545  A
N2004      C2012   1.349       .  A
C2005      C2013   1.381       .  A
C2005      C2021   1.399       .  A
C2006      C2022   1.398       .  A
C2006      C2014   1.381       .  A
C2007      C2015   1.381       .  A
C2007      C2024   1.398       .  A
C2008      C2023   1.399       .  A
C2008      C2016   1.381       .  A
C2009      N2758   1.349       .  A
C2009      C2021   1.401       .  A
C2009      C2017   1.377       .  A
C2010      C2024   1.401       .  A
C2010      C2018   1.377       .  A
C2011      N2760   1.348       .  A
C2011      C2019   1.377       .  A
C2011      C2022   1.400       .  A
C2012      C2020   1.377       .  A
C2012      C2023   1.400       .  A
C2013      H2025   1.082       .  S
C2014      H2026   1.082       .  S
C2015      H2027   1.082       .  S
C2016      H2028   1.082       .  S
C2017      C2774   1.372       .  A
C2017      H2029   1.080       .  S
C2018      C2773   1.372   1_545  A
C2018      H2030   1.080       .  S
C2019      C2776   1.372       .  A
C2019      H2031   1.080       .  S
C2020      C2775   1.372   1_545  A
C2020      H2032   1.080       .  S
C2035      C2036   1.542       .  S
C2035      C2041   1.535       .  S
C2035      C2039   1.542       .  S
C2035      C2260   1.463       .  S
C2036      H2043   1.086       .  S
C2036      C2037   1.365       .  D
C2037      C2038   1.543       .  S
C2037      C2239   1.492       .  S
C2038      C2042   1.542       .  S
C2038      C2040   1.547       .  S
C2038      H2044   1.111       .  S
C2039      H2045   1.086       .  S
C2039      C2040   1.366       .  D
C2040      C2079   1.497       .  S
C2041      H2046   1.086       .  S
C2041      C2042   1.358       .  D
C2042      C2125   1.483       .  S
C2047      C2048   1.535       .  S
C2047      C2053   1.541       .  S
C2047      C2051   1.542       .  S
C2047      C2264   1.465       .  S
C2048      H2055   1.086       .  S
C2048      C2049   1.359       .  D
C2049      C2050   1.542       .  S
C2049      C2128   1.483       .  S
C2050      C2054   1.543       .  S
C2050      C2052   1.547       .  S
C2050      H2056   1.112       .  S
C2051      H2057   1.086       .  S
C2051      C2052   1.366       .  D
C2052      C2082   1.497       .  S
C2053      H2058   1.086       .  S
C2053      C2054   1.365       .  D
C2054      C2160   1.491       .  S
N2059      C2063   1.351       .  A
N2059      H2091   1.042       .  S
N2060      C2067   1.351       .  A
N2061      C2065   1.351       .  A
N2061      H2092   1.042       .  S
N2062      C2069   1.352       .  A
C2063      C2071   1.382       .  A
C2063      C2079   1.405       .  A
C2064      C2080   1.404       .  A
C2064      C2072   1.382       .  A
C2065      C2073   1.382       .  A
C2065      C2082   1.405       .  A
C2066      C2081   1.405       .  A
C2066      C2074   1.382       .  A
C2067      C2079   1.405       .  A
C2067      C2075   1.376       .  A
C2068      C2082   1.405       .  A
C2068      C2076   1.376       .  A
C2069      C2077   1.377       .  A
C2069      C2080   1.408       .  A
C2070      C2078   1.377       .  A
C2070      C2081   1.408       .  A
C2071      H2083   1.082       .  S
C2072      H2084   1.082       .  S
C2073      H2085   1.082       .  S
C2074      H2086   1.082       .  S
C2075      H2087   1.080       .  S
C2076      H2088   1.080       .  S
C2077      H2089   1.080       .  S
C2078      H2090   1.080       .  S
C2093      C2094   1.541       .  S
C2093      C2099   1.536       .  S
C2093      C2097   1.543       .  S
C2093      C2267   1.465       .  S
C2094      H2101   1.086       .  S
C2094      C2095   1.365       .  D
C2095      C2096   1.542       .  S
C2095      C2159   1.490       .  S
C2096      C2100   1.543       .  S
C2096      C2098   1.547       .  S
C2096      H2102   1.111       .  S
C2097      H2103   1.086       .  S
C2097      C2098   1.367       .  D
C2098      C2196   1.498       .  S
C2099      H2104   1.086       .  S
C2099      C2100   1.359       .  D
C2100      C2127   1.485       .  S
N2105      C2866   1.347       .  A
N2105      C2109   1.347       .  A
N2105      H2137   1.033       .  S
N2106      C2113   1.345       .  A
N2107      C2112   1.348   1_565  A
N2107      C2867   1.348       .  A
N2107      H2138   1.033       .  S
N2108      C2115   1.345       .  A
C2109      C2117   1.380       .  A
C2109      C2125   1.404       .  A
C2110      N2861   1.347       .  A
C2110      C2126   1.404       .  A
C2110      C2118   1.380       .  A
C2111      N2863   1.348       .  A
C2111      C2119   1.380       .  A
C2111      C2128   1.405       .  A
C2112      C2127   1.406       .  A
C2112      C2120   1.380       .  A
C2113      C2125   1.403       .  A
C2113      C2121   1.380       .  A
C2114      C2128   1.403       .  A
C2114      C2122   1.380       .  A
C2115      C2123   1.380       .  A
C2115      C2126   1.403       .  A
C2116      C2124   1.380       .  A
C2116      C2127   1.403       .  A
C2117      C2874   1.379       .  A
C2117      H2129   1.081       .  S
C2118      C2873   1.379   1_545  A
C2118      H2130   1.081       .  S
C2119      C2876   1.380       .  A
C2119      H2131   1.081       .  S
C2120      C2875   1.380   1_545  A
C2120      H2132   1.081       .  S
C2121      H2133   1.082       .  S
C2122      H2134   1.081       .  S
C2123      H2135   1.081       .  S
C2124      H2136   1.081       .  S
C2126      C2214   1.483       .  S
N2139      C2900   1.351       .  A
N2139      C2143   1.351   1_565  A
N2139      H2171   1.041       .  S
N2140      C2147   1.350       .  A
N2141      C2902   1.351       .  A
N2141      C2145   1.351   1_565  A
N2141      H2172   1.042       .  S
N2142      C2149   1.350       .  A
C2143      C2151   1.382       .  A
C2143      C2159   1.407       .  A
C2144      N2895   1.351       .  A
C2144      C2160   1.407       .  A
C2144      C2152   1.382       .  A
C2145      C2153   1.381       .  A
C2145      C2162   1.404       .  A
C2146      N2897   1.351       .  A
C2146      C2161   1.404       .  A
C2146      C2154   1.381       .  A
C2147      C2159   1.403       .  A
C2147      C2155   1.378       .  A
C2148      C2162   1.401       .  A
C2148      C2156   1.377       .  A
C2149      C2157   1.378       .  A
C2149      C2160   1.404       .  A
C2150      C2158   1.377       .  A
C2150      C2161   1.402       .  A
C2151      C2908   1.381   1_545  A
C2151      H2163   1.082       .  S
C2152      C2907   1.381       .  A
C2152      H2164   1.082       .  S
C2153      C2910   1.380   1_545  A
C2153      H2165   1.082       .  S
C2154      C2909   1.380       .  A
C2154      H2166   1.082       .  S
C2155      H2167   1.080       .  S
C2156      H2168   1.080       .  S
C2157      H2169   1.080       .  S
C2158      H2170   1.080       .  S
N2173      C2177   1.351       .  A
N2173      H2205   1.042       .  S
N2174      C2181   1.351       .  A
N2175      C2179   1.352       .  A
N2175      H2206   1.042       .  S
N2176      C2183   1.353       .  A
C2177      C2185   1.382       .  A
C2177      C2193   1.405       .  A
C2178      C2194   1.405       .  A
C2178      C2186   1.382       .  A
C2179      C2187   1.382       .  A
C2179      C2196   1.406       .  A
C2180      C2195   1.405       .  A
C2180      C2188   1.382       .  A
C2181      C2193   1.405       .  A
C2181      C2189   1.376       .  A
C2182      C2196   1.405       .  A
C2182      C2190   1.376       .  A
C2183      C2191   1.378       .  A
C2183      C2194   1.408       .  A
C2184      C2192   1.378       .  A
C2184      C2195   1.408       .  A
C2185      H2197   1.082       .  S
C2186      H2198   1.082       .  S
C2187      H2199   1.082       .  S
C2188      H2200   1.082       .  S
C2189      H2201   1.080       .  S
C2190      H2202   1.080       .  S
C2191      H2203   1.080       .  S
C2192      H2204   1.080       .  S
C2193      C2209   1.497       .  S
C2207      C2208   1.543       .  S
C2207      C2213   1.535       .  S
C2207      C2211   1.541       .  S
C2207      C2266   1.464       .  S
C2208      H2215   1.086       .  S
C2208      C2209   1.366       .  D
C2209      C2210   1.547       .  S
C2210      C2214   1.543       .  S
C2210      C2212   1.543       .  S
C2210      H2216   1.111       .  S
C2211      H2217   1.086       .  S
C2211      C2212   1.365       .  D
C2212      C2240   1.491       .  S
C2213      H2218   1.087       .  S
C2213      C2214   1.358       .  D
N2219      C2980   1.351       .  A
N2219      C2223   1.351       .  A
N2219      H2251   1.041       .  S
N2220      C2227   1.350       .  A
N2221      C2982   1.351       .  A
N2221      C2225   1.351       .  A
N2221      H2252   1.042       .  S
N2222      C2229   1.350       .  A
C2223      C2231   1.382       .  A
C2223      C2239   1.407       .  A
C2224      N2975   1.351       .  A
C2224      C2240   1.407       .  A
C2224      C2232   1.382       .  A
C2225      C2233   1.382       .  A
C2225      C2242   1.405       .  A
C2226      N2977   1.351       .  A
C2226      C2241   1.405       .  A
C2226      C2234   1.382       .  A
C2227      C2239   1.404       .  A
C2227      C2235   1.378       .  A
C2228      C2242   1.403       .  A
C2228      C2236   1.377       .  A
C2229      C2237   1.378       .  A
C2229      C2240   1.404       .  A
C2230      C2238   1.377       .  A
C2230      C2241   1.403       .  A
C2231      C2988   1.381       .  A
C2231      H2243   1.082       .  S
C2232      C2987   1.381   1_545  A
C2232      H2244   1.082       .  S
C2233      C2990   1.381       .  A
C2233      H2245   1.082       .  S
C2234      C2989   1.381   1_545  A
C2234      H2246   1.082       .  S
C2235      H2247   1.080       .  S
C2236      H2248   1.080       .  S
C2237      H2249   1.080       .  S
C2238      H2250   1.080       .  S
C2253      C2254   1.206       .  T
C2255      C2256   1.205       .  T
C2257      C2258   1.206       .  T
C2259      C2260   1.204       .  T
C2261      C2262   1.206       .  T
C2263      C2264   1.205       .  T
C2265      C2266   1.204       .  T
C2267      C2268   1.205       .  T
O2269     Zr2281   2.451       .  S
O2269      C2271   1.288       .  A
O2270     Zr2307   2.411       .  S
O2270      C2271   1.282       .  A
C2271      C2646   1.433       .  S
O2272     Zr2284   2.452       .  S
O2272      C2274   1.289       .  A
O2273     Zr2308   2.413       .  S
O2273      C2274   1.282       .  A
C2274      C2635   1.434       .  S
O2275     Zr2284   2.450       .  S
O2275      C2277   1.288       .  A
O2276     Zr2307   2.414       .  S
O2276      C2277   1.282       .  A
C2277      C2641   1.433       .  S
O2278     Zr2281   2.451       .  S
O2278      C2280   1.288       .  A
O2279     Zr2308   2.415       .  S
O2279      C2280   1.283       .  A
C2280      C2640   1.435       .  S
Zr2281     O2282   2.433       .  S
Zr2281     O2283   2.435       .  S
Zr2281     O2287   2.373       .  S
Zr2281     O2288   2.372       .  S
Zr2281     O2311   2.374       .  S
Zr2281     O2313   2.374       .  S
O2282      H2325   0.990       .  S
O2283      H2324   0.990       .  S
O2283      H2328   0.990       .  S
Zr2284     O2285   2.435       .  S
Zr2284     O2286   2.434       .  S
Zr2284     O2288   2.372       .  S
Zr2284     O2287   2.373       .  S
Zr2284     O2312   2.373       .  S
Zr2284     O2314   2.375       .  S
O2285      H2326   0.990       .  S
O2285      H2329   0.990       .  S
O2286      H2319   0.990       .  S
O2287     Zr2307   2.378       .  S
O2288     Zr2308   2.383       .  S
O2288      H2315   0.965       .  S
O2289     Zr2301   2.450       .  S
O2289      C2291   1.288       .  A
O2290     Zr2308   2.413       .  S
O2290      C2291   1.282       .  A
C2291      C2634   1.433       .  S
O2292     Zr2304   2.449       .  S
O2292      C2294   1.288       .  A
O2293     Zr2307   2.410       .  S
O2293      C2294   1.282       .  A
C2294      C2637   1.432       .  S
O2295     Zr2304   2.452       .  S
O2295      C2297   1.289       .  A
O2296     Zr2308   2.415       .  S
O2296      C2297   1.283       .  A
C2297      C2632   1.434       .  S
O2298     Zr2301   2.448       .  S
O2298      C2300   1.288       .  A
O2299     Zr2307   2.412       .  S
O2299      C2300   1.282       .  A
C2300      C2643   1.432       .  S
Zr2301     O2302   2.436       .  S
Zr2301     O2303   2.434       .  S
Zr2301     O2309   2.372       .  S
Zr2301     O2310   2.372       .  S
Zr2301     O2313   2.372       .  S
Zr2301     O2311   2.374       .  S
O2302      H2322   0.990       .  S
O2302      H2327   0.990       .  S
O2303      H2323   0.990       .  S
Zr2304     O2305   2.434       .  S
Zr2304     O2306   2.434       .  S
Zr2304     O2310   2.373       .  S
Zr2304     O2309   2.373       .  S
Zr2304     O2314   2.373       .  S
Zr2304     O2312   2.372       .  S
O2305      H2321   0.990       .  S
O2306      H2320   0.990       .  S
O2306      H2330   0.990       .  S
Zr2307     O2310   2.378       .  S
Zr2307     O2312   2.383       .  S
Zr2307     O2313   2.382       .  S
Zr2308     O2309   2.383       .  S
Zr2308     O2311   2.380       .  S
Zr2308     O2314   2.380       .  S
O2309      H2317   0.965       .  S
O2312      H2316   0.965       .  S
O2313      H2318   0.966       .  S
C2331      C2332   1.543       .  S
C2331      C2337   1.535       .  S
C2331      C2335   1.541       .  S
C2331      C2631   1.466       .  S
C2332      H2339   1.086       .  S
C2332      C2333   1.367       .  D
C2333      C2334   1.546       .  S
C2333      C2458   1.497       .  S
C2334      C2338   1.543       .  S
C2334      C2336   1.546       .  S
C2334      H2340   1.111       .  S
C2335      H2341   1.086       .  S
C2335      C2336   1.365       .  D
C2336      C2620   1.494       .  S
C2337      H2342   1.086       .  S
C2337      C2338   1.358       .  D
C2338      C2400   1.484       .  S
C2343      C2344   1.535       .  S
C2343      C2349   1.543       .  S
C2343      C2347   1.540       .  S
C2343      C2633   1.465       .  S
C2344      H2351   1.086       .  S
C2344      C2345   1.359       .  D
C2345      C2346   1.543       .  S
C2345      C2401   1.485       .  S
C2346      C2350   1.547       .  S
C2346      C2348   1.546       .  S
C2346      H2352   1.111       .  S
C2347      H2353   1.086       .  S
C2347      C2348   1.364       .  D
C2348      C2619   1.494       .  S
C2349      H2354   1.086       .  S
C2349      C2350   1.367       .  D
C2350      C2572   1.497       .  S
C2355      C2356   1.540       .  S
C2355      C2361   1.535       .  S
C2355      C2359   1.544       .  S
C2355      C2636   1.466       .  S
C2356      H2363   1.086       .  S
C2356      C2357   1.364       .  D
C2357      C2358   1.545       .  S
C2357      C2539   1.493       .  S
C2358      C2362   1.543       .  S
C2358      C2360   1.547       .  S
C2358      H2364   1.111       .  S
C2359      H2365   1.086       .  S
C2359      C2360   1.367       .  D
C2360      C2459   1.498       .  S
C2361      H2366   1.086       .  S
C2361      C2362   1.358       .  D
C2362      C2399   1.485       .  S
C2367      C2368   1.535       .  S
C2367      C2373   1.540       .  S
C2367      C2371   1.544       .  S
C2367      C2639   1.466       .  S
C2368      H2375   1.086       .  S
C2368      C2369   1.359       .  D
C2369      C2370   1.543       .  S
C2369      C2402   1.484       .  S
C2370      C2374   1.545       .  S
C2370      C2372   1.546       .  S
C2370      H2376   1.111       .  S
C2371      H2377   1.086       .  S
C2371      C2372   1.367       .  D
C2372      C2573   1.498       .  S
C2373      H2378   1.086       .  S
C2373      C2374   1.364       .  D
C2374      C2540   1.492       .  S
N2379      C2384   1.348       .  A
N2379      H2411   1.042       .  S
N2380      C2388   1.349       .  A
N2381      C2386   1.348       .  A
N2381      H2412   1.042       .  S
N2382      C2390   1.349       .  A
C2383      C2391   1.381       .  A
C2383      C2399   1.399       .  A
C2384      C2400   1.398       .  A
C2384      C2392   1.381       .  A
C2385      C2393   1.381       .  A
C2385      C2402   1.398       .  A
C2386      C2401   1.399       .  A
C2386      C2394   1.381       .  A
C2387      C2399   1.401       .  A
C2387      C2395   1.377       .  A
C2388      C2402   1.401       .  A
C2388      C2396   1.377       .  A
C2389      C2397   1.377       .  A
C2389      C2400   1.400       .  A
C2390      C2398   1.377       .  A
C2390      C2401   1.400       .  A
C2391      H2403   1.082       .  S
C2392      H2404   1.082       .  S
C2393      H2405   1.082       .  S
C2394      H2406   1.082       .  S
C2395      H2407   1.080       .  S
C2396      H2408   1.080       .  S
C2397      H2409   1.080       .  S
C2398      H2410   1.080       .  S
C2413      C2414   1.542       .  S
C2413      C2419   1.535       .  S
C2413      C2417   1.542       .  S
C2413      C2638   1.463       .  S
C2414      H2421   1.086       .  S
C2414      C2415   1.365       .  D
C2415      C2416   1.543       .  S
C2415      C2617   1.492       .  S
C2416      C2420   1.542       .  S
C2416      C2418   1.547       .  S
C2416      H2422   1.111       .  S
C2417      H2423   1.086       .  S
C2417      C2418   1.366       .  D
C2418      C2457   1.497       .  S
C2419      H2424   1.086       .  S
C2419      C2420   1.358       .  D
C2420      C2503   1.483       .  S
C2425      C2426   1.535       .  S
C2425      C2431   1.541       .  S
C2425      C2429   1.542       .  S
C2425      C2642   1.465       .  S
C2426      H2433   1.086       .  S
C2426      C2427   1.359       .  D
C2427      C2428   1.542       .  S
C2427      C2506   1.483       .  S
C2428      C2432   1.543       .  S
C2428      C2430   1.547       .  S
C2428      H2434   1.112       .  S
C2429      H2435   1.086       .  S
C2429      C2430   1.366       .  D
C2430      C2460   1.497       .  S
C2431      H2436   1.086       .  S
C2431      C2432   1.365       .  D
C2432      C2538   1.491       .  S
N2437      C2820   1.351   1_554  A
N2437      C2441   1.351       .  A
N2437      H2469   1.042       .  S
N2438      C2445   1.351       .  A
N2439      C2822   1.351   1_554  A
N2439      C2443   1.351       .  A
N2439      H2470   1.042       .  S
N2440      C2447   1.352       .  A
C2441      C2449   1.382       .  A
C2441      C2457   1.405       .  A
C2442      N2815   1.351       .  A
C2442      C2458   1.404       .  A
C2442      C2450   1.382       .  A
C2443      C2451   1.382       .  A
C2443      C2460   1.405       .  A
C2444      N2817   1.351       .  A
C2444      C2459   1.405       .  A
C2444      C2452   1.382       .  A
C2445      C2457   1.405       .  A
C2445      C2453   1.376       .  A
C2446      C2460   1.405       .  A
C2446      C2454   1.376       .  A
C2447      C2455   1.377       .  A
C2447      C2458   1.408       .  A
C2448      C2456   1.377       .  A
C2448      C2459   1.408       .  A
C2449      C2828   1.381   1_554  A
C2449      H2461   1.082       .  S
C2450      C2827   1.381       .  A
C2450      H2462   1.082       .  S
C2451      C2830   1.381   1_554  A
C2451      H2463   1.082       .  S
C2452      C2829   1.381       .  A
C2452      H2464   1.082       .  S
C2453      H2465   1.080       .  S
C2454      H2466   1.080       .  S
C2455      H2467   1.080       .  S
C2456      H2468   1.080       .  S
C2471      C2472   1.541       .  S
C2471      C2477   1.536       .  S
C2471      C2475   1.543       .  S
C2471      C2645   1.465       .  S
C2472      H2479   1.086       .  S
C2472      C2473   1.365       .  D
C2473      C2474   1.542       .  S
C2473      C2537   1.490       .  S
C2474      C2478   1.543       .  S
C2474      C2476   1.547       .  S
C2474      H2480   1.111       .  S
C2475      H2481   1.086       .  S
C2475      C2476   1.367       .  D
C2476      C2574   1.498       .  S
C2477      H2482   1.086       .  S
C2477      C2478   1.359       .  D
C2478      C2505   1.485       .  S
N2483      C2487   1.347   1_545  A
N2483      H2515   1.033   1_545  S
N2484      C2491   1.345       .  A
N2485      C2490   1.348       .  A
N2485      H2516   1.033       .  S
N2486      C2493   1.345       .  A
C2487      C2495   1.380       .  A
C2487      C2503   1.404       .  A
C2488      C2504   1.404       .  A
C2488      C2496   1.380       .  A
C2489      C2497   1.380       .  A
C2489      C2506   1.405       .  A
C2490      C2505   1.406       .  A
C2490      C2498   1.380       .  A
C2491      C2503   1.403       .  A
C2491      C2499   1.380       .  A
C2492      C2506   1.403       .  A
C2492      C2500   1.380       .  A
C2493      C2501   1.380       .  A
C2493      C2504   1.403       .  A
C2494      C2502   1.380       .  A
C2494      C2505   1.403       .  A
C2495      H2507   1.081       .  S
C2496      H2508   1.081       .  S
C2497      H2509   1.081       .  S
C2498      H2510   1.081       .  S
C2499      H2511   1.082       .  S
C2500      H2512   1.081       .  S
C2501      H2513   1.081       .  S
C2502      H2514   1.081       .  S
C2504      C2592   1.483       .  S
N2517      C2521   1.351       .  A
N2517      H2549   1.041       .  S
N2518      C2525   1.350       .  A
N2518      C2904   1.350   1_554  A
N2519      C2523   1.351       .  A
N2519      H2550   1.042       .  S
N2520      C2527   1.350       .  A
N2520      C2906   1.350   1_554  A
C2521      C2529   1.382       .  A
C2521      C2537   1.407       .  A
C2522      C2538   1.407       .  A
C2522      C2530   1.382       .  A
C2523      C2531   1.381       .  A
C2523      C2540   1.404       .  A
C2524      C2539   1.404       .  A
C2524      C2532   1.381       .  A
C2525      C2537   1.403       .  A
C2525      C2533   1.378       .  A
C2526      N2896   1.350       .  A
C2526      C2540   1.401       .  A
C2526      C2534   1.377       .  A
C2527      C2535   1.378       .  A
C2527      C2538   1.404       .  A
C2528      N2898   1.350       .  A
C2528      C2536   1.377       .  A
C2528      C2539   1.402       .  A
C2529      H2541   1.082       .  S
C2530      H2542   1.082       .  S
C2531      H2543   1.082       .  S
C2532      H2544   1.082       .  S
C2533      C2912   1.371   1_554  A
C2533      H2545   1.080       .  S
C2534      C2911   1.371       .  A
C2534      H2546   1.080       .  S
C2535      C2914   1.371   1_554  A
C2535      H2547   1.080       .  S
C2536      C2913   1.371       .  A
C2536      H2548   1.080       .  S
N2551      C2934   1.351   1_554  A
N2551      C2555   1.351       .  A
N2551      H2583   1.042       .  S
N2552      C2559   1.351       .  A
N2553      C2936   1.351   1_554  A
N2553      C2557   1.352       .  A
N2553      H2584   1.042       .  S
N2554      C2561   1.353       .  A
C2555      C2563   1.382       .  A
C2555      C2571   1.405       .  A
C2556      N2929   1.351       .  A
C2556      C2572   1.405       .  A
C2556      C2564   1.382       .  A
C2557      C2565   1.382       .  A
C2557      C2574   1.406       .  A
C2558      N2931   1.351       .  A
C2558      C2573   1.405       .  A
C2558      C2566   1.382       .  A
C2559      C2571   1.405       .  A
C2559      C2567   1.376       .  A
C2560      C2574   1.405       .  A
C2560      C2568   1.376       .  A
C2561      C2569   1.378       .  A
C2561      C2572   1.408       .  A
C2562      C2570   1.378       .  A
C2562      C2573   1.408       .  A
C2563      C2942   1.381   1_554  A
C2563      H2575   1.082       .  S
C2564      C2941   1.381       .  A
C2564      H2576   1.082       .  S
C2565      C2944   1.381   1_554  A
C2565      H2577   1.082       .  S
C2566      C2943   1.381       .  A
C2566      H2578   1.082       .  S
C2567      H2579   1.080       .  S
C2568      H2580   1.080       .  S
C2569      H2581   1.080       .  S
C2570      H2582   1.080       .  S
C2571      C2587   1.497       .  S
C2585      C2586   1.543       .  S
C2585      C2591   1.535       .  S
C2585      C2589   1.541       .  S
C2585      C2644   1.464       .  S
C2586      H2593   1.086       .  S
C2586      C2587   1.366       .  D
C2587      C2588   1.547       .  S
C2588      C2592   1.543       .  S
C2588      C2590   1.543       .  S
C2588      H2594   1.111       .  S
C2589      H2595   1.086       .  S
C2589      C2590   1.365       .  D
C2590      C2618   1.491       .  S
C2591      H2596   1.087       .  S
C2591      C2592   1.358       .  D
N2597      C2601   1.351   1_545  A
N2597      H2629   1.041       .  S
N2598      C2605   1.350       .  A
N2598      C2984   1.351   1_554  A
N2599      C2603   1.351   1_545  A
N2599      H2630   1.042       .  S
N2600      C2607   1.350       .  A
N2600      C2986   1.351   1_554  A
C2601      C2609   1.382       .  A
C2601      C2617   1.407       .  A
C2602      C2618   1.407       .  A
C2602      C2610   1.382       .  A
C2603      C2611   1.382       .  A
C2603      C2620   1.405       .  A
C2604      C2619   1.405       .  A
C2604      C2612   1.382       .  A
C2605      C2617   1.404       .  A
C2605      C2613   1.378       .  A
C2606      N2976   1.351       .  A
C2606      C2620   1.403       .  A
C2606      C2614   1.377       .  A
C2607      C2615   1.378       .  A
C2607      C2618   1.404       .  A
C2608      N2978   1.351       .  A
C2608      C2616   1.377       .  A
C2608      C2619   1.403       .  A
C2609      H2621   1.082       .  S
C2610      H2622   1.082       .  S
C2611      H2623   1.082       .  S
C2612      H2624   1.082       .  S
C2613      C2992   1.371   1_554  A
C2613      H2625   1.080       .  S
C2614      C2991   1.371       .  A
C2614      H2626   1.080       .  S
C2615      C2994   1.372   1_554  A
C2615      H2627   1.080       .  S
C2616      C2993   1.372       .  A
C2616      H2628   1.080       .  S
C2631      C2632   1.206       .  T
C2633      C2634   1.205       .  T
C2635      C2636   1.206       .  T
C2637      C2638   1.204       .  T
C2639      C2640   1.206       .  T
C2641      C2642   1.205       .  T
C2643      C2644   1.204       .  T
C2645      C2646   1.205       .  T
O2647     Zr2659   2.451       .  S
O2647      C2649   1.288       .  A
O2648     Zr2685   2.411       .  S
O2648      C2649   1.282       .  A
C2649      C3024   1.433       .  S
O2650     Zr2662   2.452       .  S
O2650      C2652   1.289       .  A
O2651     Zr2686   2.413       .  S
O2651      C2652   1.282       .  A
C2652      C3013   1.434       .  S
O2653     Zr2662   2.450       .  S
O2653      C2655   1.288       .  A
O2654     Zr2685   2.414       .  S
O2654      C2655   1.282       .  A
C2655      C3019   1.433       .  S
O2656     Zr2659   2.451       .  S
O2656      C2658   1.288       .  A
O2657     Zr2686   2.415       .  S
O2657      C2658   1.283       .  A
C2658      C3018   1.435       .  S
Zr2659     O2660   2.433       .  S
Zr2659     O2661   2.435       .  S
Zr2659     O2665   2.373       .  S
Zr2659     O2666   2.372       .  S
Zr2659     O2689   2.374       .  S
Zr2659     O2691   2.374       .  S
O2660      H2703   0.990       .  S
O2661      H2702   0.990       .  S
O2661      H2706   0.990       .  S
Zr2662     O2663   2.435       .  S
Zr2662     O2664   2.434       .  S
Zr2662     O2666   2.372       .  S
Zr2662     O2665   2.373       .  S
Zr2662     O2690   2.373       .  S
Zr2662     O2692   2.375       .  S
O2663      H2704   0.990       .  S
O2663      H2707   0.990       .  S
O2664      H2697   0.990       .  S
O2665     Zr2685   2.378       .  S
O2666     Zr2686   2.383       .  S
O2666      H2693   0.965       .  S
O2667     Zr2679   2.450       .  S
O2667      C2669   1.288       .  A
O2668     Zr2686   2.413       .  S
O2668      C2669   1.282       .  A
C2669      C3012   1.433       .  S
O2670     Zr2682   2.449       .  S
O2670      C2672   1.288       .  A
O2671     Zr2685   2.410       .  S
O2671      C2672   1.282       .  A
C2672      C3015   1.432       .  S
O2673     Zr2682   2.452       .  S
O2673      C2675   1.289       .  A
O2674     Zr2686   2.415       .  S
O2674      C2675   1.283       .  A
C2675      C3010   1.434       .  S
O2676     Zr2679   2.448       .  S
O2676      C2678   1.288       .  A
O2677     Zr2685   2.412       .  S
O2677      C2678   1.282       .  A
C2678      C3021   1.432       .  S
Zr2679     O2680   2.436       .  S
Zr2679     O2681   2.434       .  S
Zr2679     O2687   2.372       .  S
Zr2679     O2688   2.372       .  S
Zr2679     O2691   2.372       .  S
Zr2679     O2689   2.374       .  S
O2680      H2700   0.990       .  S
O2680      H2705   0.990       .  S
O2681      H2701   0.990       .  S
Zr2682     O2683   2.434       .  S
Zr2682     O2684   2.434       .  S
Zr2682     O2688   2.373       .  S
Zr2682     O2687   2.373       .  S
Zr2682     O2692   2.373       .  S
Zr2682     O2690   2.372       .  S
O2683      H2699   0.990       .  S
O2684      H2698   0.990       .  S
O2684      H2708   0.990       .  S
Zr2685     O2688   2.378       .  S
Zr2685     O2690   2.383       .  S
Zr2685     O2691   2.382       .  S
Zr2686     O2687   2.383       .  S
Zr2686     O2689   2.380       .  S
Zr2686     O2692   2.380       .  S
O2687      H2695   0.965       .  S
O2690      H2694   0.965       .  S
O2691      H2696   0.966       .  S
C2709      C2710   1.543       .  S
C2709      C2715   1.535       .  S
C2709      C2713   1.541       .  S
C2709      C3009   1.466       .  S
C2710      H2717   1.086       .  S
C2710      C2711   1.367       .  D
C2711      C2712   1.546       .  S
C2711      C2836   1.497       .  S
C2712      C2716   1.543       .  S
C2712      C2714   1.546       .  S
C2712      H2718   1.111       .  S
C2713      H2719   1.086       .  S
C2713      C2714   1.365       .  D
C2714      C2998   1.494       .  S
C2715      H2720   1.086       .  S
C2715      C2716   1.358       .  D
C2716      C2778   1.484       .  S
C2721      C2722   1.535       .  S
C2721      C2727   1.543       .  S
C2721      C2725   1.540       .  S
C2721      C3011   1.465       .  S
C2722      H2729   1.086       .  S
C2722      C2723   1.359       .  D
C2723      C2724   1.543       .  S
C2723      C2779   1.485       .  S
C2724      C2728   1.547       .  S
C2724      C2726   1.546       .  S
C2724      H2730   1.111       .  S
C2725      H2731   1.086       .  S
C2725      C2726   1.364       .  D
C2726      C2997   1.494       .  S
C2727      H2732   1.086       .  S
C2727      C2728   1.367       .  D
C2728      C2950   1.497       .  S
C2733      C2734   1.540       .  S
C2733      C2739   1.535       .  S
C2733      C2737   1.544       .  S
C2733      C3014   1.466       .  S
C2734      H2741   1.086       .  S
C2734      C2735   1.364       .  D
C2735      C2736   1.545       .  S
C2735      C2917   1.493       .  S
C2736      C2740   1.543       .  S
C2736      C2738   1.546       .  S
C2736      H2742   1.111       .  S
C2737      H2743   1.086       .  S
C2737      C2738   1.367       .  D
C2738      C2837   1.498       .  S
C2739      H2744   1.086       .  S
C2739      C2740   1.358       .  D
C2740      C2777   1.485       .  S
C2745      C2746   1.535       .  S
C2745      C2751   1.540       .  S
C2745      C2749   1.544       .  S
C2745      C3017   1.466       .  S
C2746      H2753   1.086       .  S
C2746      C2747   1.359       .  D
C2747      C2748   1.543       .  S
C2747      C2780   1.484       .  S
C2748      C2752   1.545       .  S
C2748      C2750   1.546       .  S
C2748      H2754   1.111       .  S
C2749      H2755   1.086       .  S
C2749      C2750   1.367       .  D
C2750      C2951   1.498       .  S
C2751      H2756   1.086       .  S
C2751      C2752   1.364       .  D
C2752      C2918   1.492       .  S
N2757      C2762   1.348       .  A
N2757      H2789   1.042       .  S
N2758      C2766   1.349       .  A
N2759      C2764   1.348       .  A
N2759      H2790   1.042       .  S
N2760      C2768   1.349       .  A
C2761      C2769   1.381       .  A
C2761      C2777   1.399       .  A
C2762      C2778   1.398       .  A
C2762      C2770   1.381       .  A
C2763      C2771   1.381       .  A
C2763      C2780   1.398       .  A
C2764      C2779   1.399       .  A
C2764      C2772   1.381       .  A
C2765      C2777   1.401       .  A
C2765      C2773   1.377       .  A
C2766      C2780   1.401       .  A
C2766      C2774   1.377       .  A
C2767      C2775   1.377       .  A
C2767      C2778   1.400       .  A
C2768      C2776   1.377       .  A
C2768      C2779   1.400       .  A
C2769      H2781   1.082       .  S
C2770      H2782   1.082       .  S
C2771      H2783   1.082       .  S
C2772      H2784   1.082       .  S
C2773      H2785   1.080       .  S
C2774      H2786   1.080       .  S
C2775      H2787   1.080       .  S
C2776      H2788   1.080       .  S
C2791      C2792   1.542       .  S
C2791      C2797   1.535       .  S
C2791      C2795   1.542       .  S
C2791      C3016   1.463       .  S
C2792      H2799   1.086       .  S
C2792      C2793   1.365       .  D
C2793      C2794   1.543       .  S
C2793      C2995   1.492       .  S
C2794      C2798   1.542       .  S
C2794      C2796   1.547       .  S
C2794      H2800   1.111       .  S
C2795      H2801   1.086       .  S
C2795      C2796   1.366       .  D
C2796      C2835   1.497       .  S
C2797      H2802   1.086       .  S
C2797      C2798   1.358       .  D
C2798      C2881   1.483       .  S
C2803      C2804   1.535       .  S
C2803      C2809   1.541       .  S
C2803      C2807   1.542       .  S
C2803      C3020   1.465       .  S
C2804      H2811   1.086       .  S
C2804      C2805   1.359       .  D
C2805      C2806   1.542       .  S
C2805      C2884   1.483       .  S
C2806      C2810   1.543       .  S
C2806      C2808   1.547       .  S
C2806      H2812   1.112       .  S
C2807      H2813   1.086       .  S
C2807      C2808   1.366       .  D
C2808      C2838   1.497       .  S
C2809      H2814   1.086       .  S
C2809      C2810   1.365       .  D
C2810      C2916   1.491       .  S
N2815      C2819   1.351       .  A
N2815      H2847   1.042       .  S
N2816      C2823   1.351       .  A
N2817      C2821   1.351       .  A
N2817      H2848   1.042       .  S
N2818      C2825   1.352       .  A
C2819      C2827   1.382       .  A
C2819      C2835   1.405       .  A
C2820      C2836   1.404       .  A
C2820      C2828   1.382       .  A
C2821      C2829   1.382       .  A
C2821      C2838   1.405       .  A
C2822      C2837   1.405       .  A
C2822      C2830   1.382       .  A
C2823      C2835   1.405       .  A
C2823      C2831   1.376       .  A
C2824      C2838   1.405       .  A
C2824      C2832   1.376       .  A
C2825      C2833   1.377       .  A
C2825      C2836   1.408       .  A
C2826      C2834   1.377       .  A
C2826      C2837   1.408       .  A
C2827      H2839   1.082       .  S
C2828      H2840   1.082       .  S
C2829      H2841   1.082       .  S
C2830      H2842   1.082       .  S
C2831      H2843   1.080       .  S
C2832      H2844   1.080       .  S
C2833      H2845   1.080       .  S
C2834      H2846   1.080       .  S
C2849      C2850   1.541       .  S
C2849      C2855   1.536       .  S
C2849      C2853   1.543       .  S
C2849      C3023   1.465       .  S
C2850      H2857   1.086       .  S
C2850      C2851   1.365       .  D
C2851      C2852   1.542       .  S
C2851      C2915   1.490       .  S
C2852      C2856   1.543       .  S
C2852      C2854   1.547       .  S
C2852      H2858   1.111       .  S
C2853      H2859   1.086       .  S
C2853      C2854   1.367       .  D
C2854      C2952   1.498       .  S
C2855      H2860   1.086       .  S
C2855      C2856   1.359       .  D
C2856      C2883   1.485       .  S
N2861      C2865   1.347   1_545  A
N2861      H2893   1.033   1_545  S
N2862      C2869   1.345       .  A
N2863      C2868   1.348       .  A
N2863      H2894   1.033       .  S
N2864      C2871   1.345       .  A
C2865      C2873   1.380       .  A
C2865      C2881   1.404       .  A
C2866      C2882   1.404       .  A
C2866      C2874   1.380       .  A
C2867      C2875   1.380       .  A
C2867      C2884   1.405       .  A
C2868      C2883   1.406       .  A
C2868      C2876   1.380       .  A
C2869      C2881   1.403       .  A
C2869      C2877   1.380       .  A
C2870      C2884   1.403       .  A
C2870      C2878   1.380       .  A
C2871      C2879   1.380       .  A
C2871      C2882   1.403       .  A
C2872      C2880   1.380       .  A
C2872      C2883   1.403       .  A
C2873      H2885   1.081       .  S
C2874      H2886   1.081       .  S
C2875      H2887   1.081       .  S
C2876      H2888   1.081       .  S
C2877      H2889   1.082       .  S
C2878      H2890   1.081       .  S
C2879      H2891   1.081       .  S
C2880      H2892   1.081       .  S
C2882      C2970   1.483       .  S
N2895      C2899   1.351       .  A
N2895      H2927   1.041       .  S
N2896      C2903   1.350       .  A
N2897      C2901   1.351       .  A
N2897      H2928   1.042       .  S
N2898      C2905   1.350       .  A
C2899      C2907   1.382       .  A
C2899      C2915   1.407       .  A
C2900      C2916   1.407       .  A
C2900      C2908   1.382       .  A
C2901      C2909   1.381       .  A
C2901      C2918   1.404       .  A
C2902      C2917   1.404       .  A
C2902      C2910   1.381       .  A
C2903      C2915   1.403       .  A
C2903      C2911   1.378       .  A
C2904      C2918   1.401       .  A
C2904      C2912   1.377       .  A
C2905      C2913   1.378       .  A
C2905      C2916   1.404       .  A
C2906      C2914   1.377       .  A
C2906      C2917   1.402       .  A
C2907      H2919   1.082       .  S
C2908      H2920   1.082       .  S
C2909      H2921   1.082       .  S
C2910      H2922   1.082       .  S
C2911      H2923   1.080       .  S
C2912      H2924   1.080       .  S
C2913      H2925   1.080       .  S
C2914      H2926   1.080       .  S
N2929      C2933   1.351       .  A
N2929      H2961   1.042       .  S
N2930      C2937   1.351       .  A
N2931      C2935   1.352       .  A
N2931      H2962   1.042       .  S
N2932      C2939   1.353       .  A
C2933      C2941   1.382       .  A
C2933      C2949   1.405       .  A
C2934      C2950   1.405       .  A
C2934      C2942   1.382       .  A
C2935      C2943   1.382       .  A
C2935      C2952   1.406       .  A
C2936      C2951   1.405       .  A
C2936      C2944   1.382       .  A
C2937      C2949   1.405       .  A
C2937      C2945   1.376       .  A
C2938      C2952   1.405       .  A
C2938      C2946   1.376       .  A
C2939      C2947   1.378       .  A
C2939      C2950   1.408       .  A
C2940      C2948   1.378       .  A
C2940      C2951   1.408       .  A
C2941      H2953   1.082       .  S
C2942      H2954   1.082       .  S
C2943      H2955   1.082       .  S
C2944      H2956   1.082       .  S
C2945      H2957   1.080       .  S
C2946      H2958   1.080       .  S
C2947      H2959   1.080       .  S
C2948      H2960   1.080       .  S
C2949      C2965   1.497       .  S
C2963      C2964   1.543       .  S
C2963      C2969   1.535       .  S
C2963      C2967   1.541       .  S
C2963      C3022   1.464       .  S
C2964      H2971   1.086       .  S
C2964      C2965   1.366       .  D
C2965      C2966   1.547       .  S
C2966      C2970   1.543       .  S
C2966      C2968   1.543       .  S
C2966      H2972   1.111       .  S
C2967      H2973   1.086       .  S
C2967      C2968   1.365       .  D
C2968      C2996   1.491       .  S
C2969      H2974   1.087       .  S
C2969      C2970   1.358       .  D
N2975      C2979   1.351   1_545  A
N2975      H3007   1.041       .  S
N2976      C2983   1.350       .  A
N2977      C2981   1.351   1_545  A
N2977      H3008   1.042       .  S
N2978      C2985   1.350       .  A
C2979      C2987   1.382       .  A
C2979      C2995   1.407       .  A
C2980      C2996   1.407       .  A
C2980      C2988   1.382       .  A
C2981      C2989   1.382       .  A
C2981      C2998   1.405       .  A
C2982      C2997   1.405       .  A
C2982      C2990   1.382       .  A
C2983      C2995   1.404       .  A
C2983      C2991   1.378       .  A
C2984      C2998   1.403       .  A
C2984      C2992   1.377       .  A
C2985      C2993   1.378       .  A
C2985      C2996   1.404       .  A
C2986      C2994   1.377       .  A
C2986      C2997   1.403       .  A
C2987      H2999   1.082       .  S
C2988      H3000   1.082       .  S
C2989      H3001   1.082       .  S
C2990      H3002   1.082       .  S
C2991      H3003   1.080       .  S
C2992      H3004   1.080       .  S
C2993      H3005   1.080       .  S
C2994      H3006   1.080       .  S
C3009      C3010   1.206       .  T
C3011      C3012   1.205       .  T
C3013      C3014   1.206       .  T
C3015      C3016   1.204       .  T
C3017      C3018   1.206       .  T
C3019      C3020   1.205       .  T
C3021      C3022   1.204       .  T
C3023      C3024   1.205       .  T
