geometry optimzed in LAMMPS
_audit_creation_date              2020-12-01 
_audit_creation_method            'lammps2cif' 
_symmetry_space_group_name_H-M    'P1' 
_symmetry_Int_Tables_number       1 
_symmetry_cell_setting            triclinic 
loop_ 
_symmetry_equiv_pos_as_xyz 
  x,y,z 
_cell_length_a                    38.49937233 
_cell_length_b                    38.435940438486995 
_cell_length_c                    38.34541269437169 
_cell_angle_alpha                 90.13997487631593 
_cell_angle_beta                  90.13974842738543 
_cell_angle_gamma                 90.00875273546927 
loop_ 
_atom_site_label 
_atom_site_type_symbol 
_atom_site_fract_x 
_atom_site_fract_y 
_atom_site_fract_z 
_atom_site_charge 
O1          O  0.53562559  0.53707219  0.61403037    -0.72200
O2          O  0.46591038  0.46612766  0.61526908    -0.72200
O3          O  0.46539545  0.53649693  0.61611967    -0.72300
O4          O  0.53617943  0.46667892  0.61312954    -0.72300
O5          O  0.53812367  0.46603758  0.67134733    -0.72300
O6          O  0.46714081  0.53605524  0.67434761    -0.72200
O7          O  0.46768926  0.46550260  0.67349499    -0.72200
O8          O  0.53755778  0.53659713  0.67225596    -0.72300
Ni9        Ni  0.50071381  0.50161447  0.61256066     1.25400
Ni10       Ni  0.50270149  0.50102687  0.67497119     1.25400
C11         C  0.54796030  0.54840779  0.64290676     0.90000
C12         C  0.45539221  0.45426701  0.64454679     0.89900
C13         C  0.45469148  0.54765175  0.64565685     0.89900
C14         C  0.54870462  0.45495494  0.64171030     0.90100
O15         O  0.84697202  0.53463840  0.29692616    -0.72200
O16         O  0.84633885  0.46353800  0.36719955    -0.72200
O17         O  0.84499460  0.46403464  0.29636013    -0.72300
O18         O  0.84836523  0.53414294  0.36772911    -0.72300
O19         O  0.79037202  0.53560174  0.36858873    -0.72300
O20         O  0.78701505  0.46577216  0.29746369    -0.72200
O21         O  0.78836241  0.46527864  0.36803628    -0.72200
O22         O  0.78899147  0.53610107  0.29808140    -0.72300
Ni23       Ni  0.84878713  0.49902229  0.33201423     1.25400
Ni24       Ni  0.78663967  0.50074158  0.33307596     1.25400
C25         C  0.81799705  0.54693241  0.28606055     0.90000
C26         C  0.81717414  0.45289400  0.37912063     0.89900
C27         C  0.81539908  0.45350975  0.28528883     0.89900
C28         C  0.81983647  0.54628971  0.37976029     0.90100
O29         O  0.46349696  0.78722252  0.36636981    -0.72200
O30         O  0.53490892  0.78886049  0.29716792    -0.72200
O31         O  0.53372823  0.78718576  0.36755291    -0.72300
O32         O  0.46462924  0.78895764  0.29588893    -0.72300
O33         O  0.46451658  0.84706139  0.29727524    -0.72300
O34         O  0.53394591  0.84528628  0.36922599    -0.72200
O35         O  0.53514377  0.84695333  0.29851909    -0.72200
O36         O  0.46340485  0.84530788  0.36807933    -0.72300
Ni37       Ni  0.49917048  0.78601736  0.33167991     1.25400
Ni38       Ni  0.49923336  0.84828707  0.33332272     1.25400
C39         C  0.45184003  0.81590992  0.37860741     0.90000
C40         C  0.54682401  0.81806339  0.28664621     0.89900
C41         C  0.54521106  0.81587062  0.37999459     0.89900
C42         C  0.45325941  0.81821153  0.28490043     0.90100
O43         O  0.15755802  0.53898710  0.29779857    -0.72200
O44         O  0.15578162  0.46754686  0.36750856    -0.72200
O45         O  0.15735562  0.53803815  0.36847239    -0.72300
O46         O  0.15587368  0.46843960  0.29672710    -0.72300
O47         O  0.21388623  0.46722561  0.29704839    -0.72300
O48         O  0.21536848  0.53664231  0.36865718    -0.72200
O49         O  0.21379225  0.46635323  0.36760671    -0.72200
O50         O  0.21556444  0.53756133  0.29817879    -0.72300
Ni51       Ni  0.15453246  0.50328764  0.33260778     1.25400
Ni52       Ni  0.21671833  0.50188296  0.33287153     1.25400
C53         C  0.18691492  0.54993489  0.28669397     0.90000
C54         C  0.18457586  0.45543859  0.37901516     0.89900
C55         C  0.18663247  0.54868061  0.38021690     0.89900
C56         C  0.18468406  0.45651466  0.28519746     0.90100
O57         O  0.46278462  0.16013519  0.36710507    -0.72200
O58         O  0.53368547  0.15222385  0.29719756    -0.72200
O59         O  0.53312887  0.15557559  0.36790347    -0.72300
O60         O  0.46339383  0.15663968  0.29636706    -0.72300
O61         O  0.46715562  0.21457992  0.29388355    -0.72300
O62         O  0.53667289  0.21352331  0.36524517    -0.72200
O63         O  0.53715295  0.21018421  0.29484544    -0.72200
O64         O  0.46657624  0.21805200  0.36437292    -0.72300
Ni65       Ni  0.49810616  0.15402651  0.33225816     1.25400
Ni66       Ni  0.50201864  0.21613464  0.32950703     1.25400
C67         C  0.45314756  0.19044296  0.37711037     0.90000
C68         C  0.54688030  0.18005286  0.28457941     0.89900
C69         C  0.54628646  0.18442038  0.37816763     0.89900
C70         C  0.45402406  0.18582094  0.28339082     0.90100
O71         O  0.46607394  0.53303673  0.04273005    -0.72200
O72         O  0.53625688  0.46268306  0.03888345    -0.72200
O73         O  0.53640249  0.53298061  0.04272510    -0.72300
O74         O  0.46603148  0.46278928  0.03885941    -0.72300
O75         O  0.46572866  0.46558432  0.98068742    -0.72300
O76         O  0.53643020  0.53608597  0.98457436    -0.72200
O77         O  0.53630672  0.46545821  0.98071094    -0.72200
O78         O  0.46581906  0.53613202  0.98457903    -0.72300
Ni79       Ni  0.50121304  0.49776430  0.04284217     1.25400
Ni80       Ni  0.50108422  0.50092970  0.98050718     1.25400
C81         C  0.45439391  0.54601449  0.01434127     0.90000
C82         C  0.54770146  0.45252326  0.00927832     0.89900
C83         C  0.54789040  0.54604406  0.01435264     0.89900
C84         C  0.45431693  0.45277652  0.00924928     0.90100
C85         C  0.74102881  0.73884647  0.56893900    -0.00300
C86         C  0.76352597  0.76347331  0.59235641    -0.00300
C87         C  0.73901771  0.25979015  0.56921964    -0.00300
C88         C  0.76187033  0.23586621  0.59293636    -0.00300
C89         C  0.26212103  0.73933366  0.57342914    -0.00300
C90         C  0.23926204  0.76308644  0.59731971    -0.00300
C91         C  0.73860154  0.73907734  0.09543595    -0.00300
C92         C  0.76194588  0.76248157  0.07165781    -0.00300
C93         C  0.26061539  0.26536655  0.57187147    -0.00300
C94         C  0.23755977  0.24042714  0.59421023    -0.00300
C95         C  0.26316561  0.73885007  0.09212464    -0.00300
C96         C  0.23971209  0.76287394  0.06907670    -0.00300
C97         C  0.73517699  0.26096931  0.09369488    -0.00300
C98         C  0.75947297  0.23807140  0.07042543    -0.00300
C99         C  0.26239234  0.26575006  0.09309093    -0.00300
C100        C  0.23809082  0.24223287  0.07040514    -0.00300
O101        O  0.28697635  0.03468748  0.79584843    -0.72200
O102        O  0.28908087  0.96681887  0.86856202    -0.72200
O103        O  0.28621681  0.03707307  0.86631577    -0.72300
O104        O  0.28999463  0.96445842  0.79811584    -0.72300
O105        O  0.34797430  0.96678540  0.79875963    -0.72300
O106        O  0.34418836  0.03956507  0.86715375    -0.72200
O107        O  0.34705289  0.96905603  0.86947607    -0.72200
O108        O  0.34493761  0.03725729  0.79645380    -0.72300
Ni109      Ni  0.28601117  0.00067035  0.83219226     1.25400
Ni110      Ni  0.34815295  0.00325735  0.83299791     1.25400
C111        C  0.31553597  0.04705989  0.78426807     0.90000
C112        C  0.31831158  0.95678903  0.88084624     0.89900
C113        C  0.31455788  0.05018410  0.87783070     0.89900
C114        C  0.31954454  0.95380756  0.78727801     0.90100
O115        O  0.03248713  0.28679732  0.86990793    -0.72200
O116        O  0.96213655  0.28543679  0.79943525    -0.72200
O117        O  0.03238835  0.28501892  0.79938228    -0.72300
O118        O  0.96231357  0.28716338  0.86993612    -0.72300
O119        O  0.96250039  0.34526556  0.86878102    -0.72300
O120        O  0.03281364  0.34310880  0.79796422    -0.72200
O121        O  0.96234267  0.34354228  0.79804752    -0.72200
O122        O  0.03289693  0.34490750  0.86870858    -0.72300
Ni123      Ni  0.99731824  0.28403851  0.83470297     1.25400
Ni124      Ni  0.99764987  0.34632141  0.83331749     1.25400
C125        C  0.04411147  0.31602834  0.88085391     0.90000
C126        C  0.95075808  0.31421796  0.78725611     0.89900
C127        C  0.04405385  0.31365366  0.78714791     0.89900
C128        C  0.95103141  0.31649026  0.88094460     0.90100
O129        O  0.96520134  0.03635537  0.17318427    -0.72200
O130        O  0.03758408  0.96764554  0.17335897    -0.72200
O131        O  0.03575205  0.03822162  0.17328603    -0.72300
O132        O  0.96714741  0.96573540  0.17322815    -0.72300
O133        O  0.96722642  0.96567453  0.11497899    -0.72300
O134        O  0.03558537  0.03793978  0.11503684    -0.72200
O135        O  0.03743305  0.96758817  0.11511055    -0.72200
O136        O  0.96526321  0.03606111  0.11493859    -0.72300
Ni137      Ni  0.00141613  0.00202252  0.17538460     1.25400
Ni138      Ni  0.00136865  0.00183377  0.11295289     1.25400
C139        C  0.95338849  0.04733597  0.14397611     0.90000
C140        C  0.04923044  0.95636587  0.14420212     0.89900
C141        C  0.04695640  0.04976284  0.14411201     0.89900
C142        C  0.95610430  0.95382527  0.14402699     0.90100
O143        O  0.65087763  0.03355653  0.79551826    -0.72200
O144        O  0.65212780  0.96420427  0.86763944    -0.72200
O145        O  0.65114484  0.03486155  0.86633386    -0.72300
O146        O  0.65175398  0.96285081  0.79676748    -0.72300
O147        O  0.70976249  0.96371672  0.79676289    -0.72300
O148        O  0.70916046  0.03542863  0.86603546    -0.72200
O149        O  0.71012792  0.96511092  0.86730656    -0.72200
O150        O  0.70888354  0.03409338  0.79556297    -0.72300
Ni151      Ni  0.64934699  0.99882893  0.83156759     1.25400
Ni152      Ni  0.71151913  0.99960611  0.83141055     1.25400
C153        C  0.67978836  0.04515847  0.78384812     0.90000
C154        C  0.68142981  0.95341002  0.87924132     0.89900
C155        C  0.68014350  0.04688733  0.87746196     0.89900
C156        C  0.68092213  0.95157928  0.78542853     0.90100
O157        O  0.03785147  0.03511487  0.48393572    -0.72200
O158        O  0.96624040  0.96559494  0.48492775    -0.72200
O159        O  0.96731721  0.03622627  0.48370114    -0.72300
O160        O  0.03678808  0.96448421  0.48523501    -0.72300
O161        O  0.03653579  0.96576871  0.54346829    -0.72300
O162        O  0.96739961  0.03721809  0.54194269    -0.72200
O163        O  0.96626230  0.96686990  0.54316663    -0.72200
O164        O  0.03761676  0.03609349  0.54217961    -0.72300
Ni165      Ni  0.00204563  0.00030784  0.48231989     1.25400
Ni166      Ni  0.00194740  0.00152785  0.54474259     1.25400
C167        C  0.04938402  0.04691691  0.51298803     0.90000
C168        C  0.95461026  0.95490919  0.51426112     0.89900
C169        C  0.95605761  0.04839688  0.51266408     0.89900
C170        C  0.04801764  0.95349956  0.51468288     0.90100
O171        O  0.96552412  0.71240722  0.86715085    -0.72200
O172        O  0.03568595  0.70988041  0.79674646    -0.72200
O173        O  0.96546118  0.71131132  0.79667627    -0.72300
O174        O  0.03572992  0.71093860  0.86720930    -0.72300
O175        O  0.03471931  0.65283854  0.86810513    -0.72300
O176        O  0.96410306  0.65321399  0.79724466    -0.72200
O177        O  0.03469327  0.65178433  0.79728274    -0.72200
O178        O  0.96417902  0.65432295  0.86804795    -0.72300
Ni179      Ni  0.00064493  0.71317168  0.83191306     1.25400
Ni180      Ni  0.99938036  0.65090275  0.83269227     1.25400
C181        C  0.95335940  0.68386410  0.87908941     0.90000
C182        C  0.04671258  0.68053292  0.78554915     0.89900
C183        C  0.95325182  0.68241567  0.78549074     0.89900
C184        C  0.04670944  0.68191911  0.87917235     0.90100
C185        C  0.16870407  0.29027968  0.00543200     0.19300
C186        C  0.17831687  0.29521803  0.97059697    -0.09900
C187        C  0.15325404  0.30413689  0.94577594    -0.10700
C188        C  0.11850208  0.30812433  0.95572079     0.20800
C189        C  0.10901519  0.30399980  0.99072024    -0.12800
C190        C  0.13409743  0.29507153  0.01555875    -0.11000
C191        C  0.09230802  0.31391554  0.92964299     0.01800
C192        C  0.07031111  0.31617209  0.90740002    -0.31000
C193        C  0.19370971  0.27727551  0.02995907     0.03200
C194        C  0.21415989  0.26309107  0.04900053    -0.32700
H195        H  0.20495904  0.29120814  0.96247188     0.14200
H196        H  0.16079066  0.30700764  0.91872843     0.14000
H197        H  0.08215070  0.30676677  0.99860711     0.13900
H198        H  0.12636754  0.29095124  0.04238541     0.12900
C199        C  0.28391394  0.17715529  0.99944351     0.19300
C200        C  0.30360640  0.14814725  0.00930217    -0.09900
C201        C  0.31285478  0.12319439  0.98439890    -0.10700
C202        C  0.30239923  0.12721245  0.94961478     0.20800
C203        C  0.28332335  0.15659664  0.93966481    -0.12800
C204        C  0.27408736  0.18152048  0.96453914    -0.11000
C205        C  0.30934632  0.10030898  0.92450835     0.01800
C206        C  0.31285487  0.07746304  0.90326698    -0.31000
C207        C  0.27150815  0.20108486  0.02536192     0.03200
C208        C  0.25803259  0.22015924  0.04628583    -0.32700
H209        H  0.31107047  0.14442130  0.03630007     0.14200
H210        H  0.32743404  0.10044753  0.99237779     0.14000
H211        H  0.27494012  0.15983133  0.91287125     0.13900
H212        H  0.25860565  0.20373287  0.95673448     0.12900
C213        C  0.12248197  0.12338531  0.13529973     0.19300
C214        C  0.11611904  0.15879935  0.14127719    -0.09900
C215        C  0.14135164  0.18356280  0.13276521    -0.10700
C216        C  0.17303603  0.17298640  0.11828495     0.20800
C217        C  0.17968749  0.13752544  0.11306346    -0.12800
C218        C  0.15448224  0.11278767  0.12156451    -0.11000
C219        C  0.19740042  0.19845491  0.10586512     0.01800
C220        C  0.21658279  0.21886667  0.09183036    -0.31000
C221        C  0.09556935  0.09807167  0.14117410     0.03200
C222        C  0.07314629  0.07632401  0.14373114    -0.32700
H223        H  0.09139190  0.16730491  0.15169018     0.14200
H224        H  0.13580657  0.21094072  0.13657829     0.14000
H225        H  0.20395559  0.12908341  0.10155375     0.13900
H226        H  0.15960773  0.08550107  0.11664098     0.12900
C227        C  0.69339186  0.12364485  0.94911399     0.19300
C228        C  0.72454777  0.14193827  0.94487026    -0.09900
C229        C  0.73474735  0.16667901  0.96956024    -0.10700
C230        C  0.71386111  0.17329888  0.99866557     0.20800
C231        C  0.68238767  0.15543660  0.00272454    -0.12800
C232        C  0.67214998  0.13060762  0.97794624    -0.11000
C233        C  0.72593239  0.19716578  0.02494131     0.01800
C234        C  0.73941579  0.21617011  0.04604409    -0.31000
C235        C  0.68442864  0.09677265  0.92451418     0.03200
C236        C  0.68053904  0.07395469  0.90324963    -0.32700
H237        H  0.74123194  0.13666168  0.92276023     0.14200
H238        H  0.75920573  0.18022726  0.96626843     0.14000
H239        H  0.66613853  0.16025973  0.02525201     0.13900
H240        H  0.64807185  0.11649237  0.98154686     0.12900
C241        C  0.87831839  0.30768864  0.95718420     0.15700
C242        C  0.88897890  0.29328964  0.98899193    -0.09900
C243        C  0.86430217  0.28350001  0.01379136    -0.10700
C244        C  0.82884981  0.28808192  0.00690505     0.20800
C245        C  0.81820513  0.30336975  0.97551293    -0.12800
C246        C  0.84290342  0.31316341  0.95068720    -0.11000
C247        C  0.80350617  0.27427493  0.03062590     0.01800
C248        C  0.78308907  0.25952449  0.04924424    -0.31000
C249        C  0.90353148  0.31425226  0.93033899     0.03200
C250        C  0.92504438  0.31679569  0.90769128    -0.32700
H251        H  0.91627186  0.28871310  0.99419175     0.14200
H252        H  0.87279666  0.27142258  0.03785026     0.14000
H253        H  0.79083738  0.30674614  0.96980914     0.13900
H254        H  0.83435495  0.32404778  0.92608389     0.12900
C255        C  0.87552195  0.11838078  0.13409629     0.19300
C256        C  0.87644390  0.15163393  0.14918844    -0.09900
C257        C  0.85106822  0.17626541  0.14050055    -0.10700
C258        C  0.82469616  0.16768768  0.11672660     0.20800
C259        C  0.82338357  0.13421019  0.10226163    -0.12800
C260        C  0.84870537  0.10963572  0.11092413    -0.11000
C261        C  0.80052785  0.19371165  0.10494308     0.01800
C262        C  0.78133225  0.21448524  0.09136183    -0.31000
C263        C  0.90298239  0.09378184  0.14064743     0.03200
C264        C  0.92607396  0.07276008  0.14349592    -0.32700
H265        H  0.89715934  0.15874391  0.16700172     0.14200
H266        H  0.85249009  0.20216627  0.15162248     0.14000
H267        H  0.80327688  0.12738221  0.08363893     0.13900
H268        H  0.84781679  0.08408119  0.09896019     0.12900
C269        C  0.17233022  0.71524133  0.00109208     0.19300
C270        C  0.14337375  0.69596231  0.01181154    -0.09900
C271        C  0.11841765  0.68547914  0.98733555    -0.10700
C272        C  0.12238725  0.69426652  0.95211241     0.20800
C273        C  0.15162866  0.71305779  0.94138846    -0.12800
C274        C  0.17652597  0.72351982  0.96581035    -0.11000
C275        C  0.09560301  0.68609073  0.92719268     0.01800
C276        C  0.07317820  0.68239786  0.90552029    -0.31000
C277        C  0.19670150  0.72847654  0.02629461     0.03200
C278        C  0.21659213  0.74245846  0.04620089    -0.32700
H279        H  0.13976099  0.68966416  0.03908813     0.14200
H280        H  0.09575959  0.67119122  0.99594204     0.14000
H281        H  0.15481833  0.72022290  0.91426875     0.13900
H282        H  0.19868199  0.73864720  0.95730030     0.12900
C283        C  0.28841576  0.83084184  0.00286951     0.19300
C284        C  0.29832668  0.86398263  0.01453813    -0.09900
C285        C  0.30834248  0.88942493  0.99051978    -0.10700
C286        C  0.30847435  0.88179883  0.95475813     0.20800
C287        C  0.29926917  0.84843101  0.94319781    -0.12800
C288        C  0.28925482  0.82302321  0.96718760    -0.11000
C289        C  0.31554113  0.90870876  0.92970599     0.01800
C290        C  0.31848647  0.93094491  0.90778179    -0.31000
C291        C  0.27484277  0.80576308  0.02706257     0.03200
C292        C  0.26056047  0.78569499  0.04644699    -0.32700
H293        H  0.29747120  0.87039551  0.04205340     0.14200
H294        H  0.31513534  0.91521745  0.99973388     0.14000
H295        H  0.29900398  0.84232720  0.91559644     0.13900
H296        H  0.28134211  0.79758794  0.95785740     0.12900
C297        C  0.17189857  0.83003753  0.11656738     0.19300
C298        C  0.18202575  0.85948038  0.13570226    -0.09900
C299        C  0.15743182  0.88481945  0.14463538    -0.10700
C300        C  0.12266391  0.88078584  0.13442381     0.20800
C301        C  0.11248670  0.85099732  0.11592496    -0.12800
C302        C  0.13701974  0.82571924  0.10701906    -0.11000
C303        C  0.09768097  0.90789401  0.14100802     0.01800
C304        C  0.07591275  0.93028609  0.14383331    -0.31000
C305        C  0.19738827  0.80553209  0.10428404     0.03200
C306        C  0.21732845  0.78569883  0.09034953    -0.32700
H307        H  0.20898332  0.86323148  0.14296397     0.14200
H308        H  0.16563681  0.90784299  0.15877706     0.14000
H309        H  0.08573356  0.84768343  0.10772397     0.13900
H310        H  0.12894738  0.80321484  0.09196967     0.12900
C311        C  0.12464448  0.11978269  0.52617093     0.19300
C312        C  0.13293454  0.14707807  0.50345546    -0.09900
C313        C  0.15717064  0.17239532  0.51358990    -0.10700
C314        C  0.17311228  0.17040889  0.54643519     0.20800
C315        C  0.16510600  0.14286631  0.56885702    -0.12800
C316        C  0.14096381  0.11766051  0.55876940    -0.11000
C317        C  0.19669001  0.19701583  0.55819329     0.01800
C318        C  0.21565956  0.21773530  0.57225783    -0.31000
C319        C  0.09849233  0.09454709  0.51710749     0.03200
C320        C  0.07614367  0.07289066  0.51325284    -0.32700
H321        H  0.12035616  0.14904262  0.47823314     0.14200
H322        H  0.16309295  0.19367491  0.49611226     0.14000
H323        H  0.17719476  0.14114396  0.59435191     0.13900
H324        H  0.13466700  0.09676337  0.57658861     0.12900
C325        C  0.30378185  0.11975184  0.70807177     0.19300
C326        C  0.31242004  0.15472218  0.71386802    -0.09900
C327        C  0.30311690  0.18003393  0.68938869    -0.10700
C328        C  0.28516643  0.17044712  0.65902430     0.20800
C329        C  0.27713785  0.13539765  0.65291952    -0.12800
C330        C  0.28643088  0.11011111  0.67737414    -0.11000
C331        C  0.27259274  0.19661786  0.63540665     0.01800
C332        C  0.25868170  0.21731499  0.61636015    -0.31000
C333        C  0.31075307  0.09408685  0.73446362     0.03200
C334        C  0.31425182  0.07258717  0.75705203    -0.32700
H335        H  0.32562763  0.16249934  0.73762047     0.14200
H336        H  0.30917472  0.20709952  0.69450893     0.14000
H337        H  0.26297687  0.12774454  0.62967656     0.13900
H338        H  0.27941244  0.08319516  0.67272282     0.12900
C339        C  0.11762827  0.30262509  0.71169123     0.19300
C340        C  0.15281991  0.30967227  0.71799248    -0.09900
C341        C  0.17781893  0.30080832  0.69304457    -0.10700
C342        C  0.16771128  0.28488171  0.66170557     0.20800
C343        C  0.13246737  0.27847479  0.65514400    -0.12800
C344        C  0.10749984  0.28732834  0.68005772    -0.11000
C345        C  0.19346519  0.27286356  0.63733274     0.01800
C346        C  0.21403330  0.25984864  0.61751383    -0.31000
C347        C  0.09208698  0.30920185  0.73829944     0.03200
C348        C  0.07029392  0.31243767  0.76062807    -0.32700
H349        H  0.16097987  0.32131501  0.74243417     0.14200
H350        H  0.20502026  0.30564638  0.69850150     0.14000
H351        H  0.12437712  0.26593492  0.63112015     0.13900
H352        H  0.08040124  0.28158228  0.67496998     0.12900
C353        C  0.82727177  0.71617322  0.00119357     0.19300
C354        C  0.85252621  0.69125513  0.00953702    -0.09900
C355        C  0.87762137  0.68182503  0.98485737    -0.10700
C356        C  0.87754672  0.69731418  0.95178334     0.20800
C357        C  0.85199338  0.72186120  0.94335878    -0.12800
C358        C  0.82695552  0.73126185  0.96797545    -0.11000
C359        C  0.90439647  0.68938468  0.92687842     0.01800
C360        C  0.92684307  0.68537096  0.90533135    -0.31000
C361        C  0.80299849  0.72808630  0.02711635     0.03200
C362        C  0.78367011  0.74158750  0.04785769    -0.32700
H363        H  0.85319195  0.67962672  0.03524181     0.14200
H364        H  0.89735862  0.66294999  0.99173118     0.14000
H365        H  0.85176624  0.73414635  0.91795255     0.13900
H366        H  0.80773298  0.75075558  0.96132758     0.12900
C367        C  0.69413306  0.87968469  0.95435513     0.19300
C368        C  0.70786542  0.84755774  0.94392160    -0.09900
C369        C  0.71788905  0.82305736  0.96889565    -0.10700
C370        C  0.71423148  0.83049066  0.00448480     0.20800
C371        C  0.70000270  0.86240508  0.01497789    -0.12800
C372        C  0.68996413  0.88695496  0.98995661    -0.11000
C373        C  0.72720792  0.80621839  0.02994973     0.01800
C374        C  0.74109790  0.78612098  0.04970553    -0.31000
C375        C  0.68635577  0.90576711  0.92852743     0.03200
C376        C  0.68252046  0.92754655  0.90621932    -0.32700
H377        H  0.71145941  0.84172553  0.91650739     0.14200
H378        H  0.72913263  0.79860335  0.96047445     0.14000
H379        H  0.69731945  0.86856230  0.04242593     0.13900
H380        H  0.67961969  0.91180033  0.99835836     0.12900
C381        C  0.88400323  0.87679923  0.13469118     0.19300
C382        C  0.84950473  0.88160929  0.14525143    -0.09900
C383        C  0.82424455  0.85680003  0.13671528    -0.10700
C384        C  0.83340394  0.82708255  0.11761295     0.20800
C385        C  0.86803890  0.82192018  0.10771041    -0.12800
C386        C  0.89327753  0.84670900  0.11623563    -0.11000
C387        C  0.80703691  0.80329082  0.10571578     0.01800
C388        C  0.78586956  0.78434449  0.09230142    -0.31000
C389        C  0.90942923  0.90361840  0.14081000     0.03200
C390        C  0.93071183  0.92649215  0.14355980    -0.32700
H391        H  0.84200242  0.90487893  0.15933873     0.14200
H392        H  0.79748810  0.86119890  0.14423445     0.14000
H393        H  0.87535099  0.79918795  0.09266350     0.13900
H394        H  0.91982032  0.84281333  0.10774363     0.12900
C395        C  0.12197758  0.69134753  0.71211548     0.19300
C396        C  0.11284856  0.69570330  0.67699090    -0.09900
C397        C  0.13772712  0.70671588  0.65286407    -0.10700
C398        C  0.17185775  0.71343466  0.66373897     0.20800
C399        C  0.18118495  0.70831732  0.69870109    -0.12800
C400        C  0.15630761  0.69730258  0.72282896    -0.11000
C401        C  0.19656898  0.72788978  0.63963887     0.01800
C402        C  0.21634981  0.74246134  0.62014646    -0.31000
C403        C  0.09562751  0.68356875  0.73756321     0.03200
C404        C  0.07327412  0.68029990  0.75931534    -0.32700
H405        H  0.08633279  0.69147768  0.66844962     0.14200
H406        H  0.13015500  0.71082846  0.62595400     0.14000
H407        H  0.20742754  0.71367572  0.70746110     0.13900
H408        H  0.16361261  0.69432129  0.74996242     0.12900
C409        C  0.29059426  0.82990692  0.66300692     0.19300
C410        C  0.30696365  0.81922689  0.69386040    -0.09900
C411        C  0.31737188  0.84398779  0.71858853    -0.10700
C412        C  0.31141123  0.87942635  0.71246065     0.20800
C413        C  0.29598619  0.89007755  0.68115134    -0.12800
C414        C  0.28560177  0.86537872  0.65648808    -0.11000
C415        C  0.31825911  0.90474737  0.73924204     0.01800
C416        C  0.32050900  0.92686222  0.76143466    -0.31000
C417        C  0.27616452  0.80471343  0.63934836     0.03200
C418        C  0.26087202  0.78521185  0.62004825    -0.32700
H419        H  0.31068726  0.79181946  0.69924715     0.14200
H420        H  0.32904260  0.83547588  0.74284763     0.14000
H421        H  0.29102663  0.91739095  0.67628064     0.13900
H422        H  0.27272205  0.87386945  0.63283167     0.12900
C423        C  0.17291537  0.83099200  0.54817845     0.19300
C424        C  0.18115888  0.86649282  0.54763787    -0.09900
C425        C  0.15626917  0.89083759  0.53710687    -0.10700
C426        C  0.12300181  0.87981412  0.52707892     0.20800
C427        C  0.11501629  0.84423510  0.52683895    -0.12800
C428        C  0.13992288  0.81987749  0.53736693    -0.11000
C429        C  0.09648875  0.90515407  0.51945931     0.01800
C430        C  0.07424906  0.92696379  0.51579028    -0.31000
C431        C  0.19734205  0.80636109  0.56226135     0.03200
C432        C  0.21680658  0.78641521  0.57669876    -0.32700
H433        H  0.20649327  0.87540774  0.55619273     0.14200
H434        H  0.16267275  0.91828418  0.53762583     0.14000
H435        H  0.08931822  0.83541513  0.51936881     0.13900
H436        H  0.13318287  0.79251535  0.53792952     0.12900
C437        C  0.69198668  0.11743693  0.70748480     0.19300
C438        C  0.71565260  0.10822774  0.68134860    -0.09900
C439        C  0.72611167  0.13277641  0.65667648    -0.10700
C440        C  0.71298908  0.16674232  0.65792598     0.20800
C441        C  0.68879176  0.17586611  0.68364996    -0.12800
C442        C  0.67830205  0.15124496  0.70839744    -0.11000
C443        C  0.72623630  0.19246565  0.63413548     0.01800
C444        C  0.74060314  0.21274763  0.61497701    -0.31000
C445        C  0.68364873  0.09264516  0.73436167     0.03200
C446        C  0.68001959  0.07115050  0.75696758    -0.32700
H447        H  0.72658206  0.08226370  0.68048579     0.14200
H448        H  0.74500087  0.12547705  0.63707049     0.14000
H449        H  0.67864609  0.20212056  0.68502148     0.13900
H450        H  0.66015567  0.15875040  0.72861021     0.12900
C451        C  0.87764564  0.30313173  0.71149428     0.19300
C452        C  0.88859510  0.28943894  0.67948140    -0.09900
C453        C  0.86413253  0.27977651  0.65431228    -0.10700
C454        C  0.82862983  0.28378331  0.66105554     0.20800
C455        C  0.81764968  0.29816148  0.69277364    -0.12800
C456        C  0.84215155  0.30783951  0.71798474    -0.11000
C457        C  0.80367060  0.27060143  0.63650124     0.01800
C458        C  0.78407601  0.25644774  0.61647561    -0.31000
C459        C  0.90278787  0.31011577  0.73834935     0.03200
C460        C  0.92449129  0.31332129  0.76078279    -0.32700
H461        H  0.91597077  0.28547606  0.67431885     0.14200
H462        H  0.87284662  0.26839236  0.62997440     0.14000
H463        H  0.79022147  0.30106874  0.69832466     0.13900
H464        H  0.83342843  0.31818433  0.74277028     0.12900
C465        C  0.88152335  0.12274231  0.52283208     0.19300
C466        C  0.84660210  0.11265980  0.52481189    -0.09900
C467        C  0.82130810  0.13665880  0.53516634    -0.10700
C468        C  0.83081639  0.17085509  0.54357960     0.20800
C469        C  0.86560913  0.18117879  0.54078415    -0.12800
C470        C  0.89090981  0.15717465  0.53043136    -0.11000
C471        C  0.80543622  0.19450036  0.55762523     0.01800
C472        C  0.78512441  0.21351894  0.57212780    -0.31000
C473        C  0.90792660  0.09716902  0.51570353     0.03200
C474        C  0.92999853  0.07510387  0.51268320    -0.32700
H475        H  0.83907524  0.08604547  0.51926938     0.14200
H476        H  0.79453211  0.12832380  0.53750689     0.14000
H477        H  0.87329451  0.20748288  0.54749920     0.13900
H478        H  0.91785742  0.16519921  0.52926376     0.12900
C479        C  0.87786554  0.69553569  0.71243265     0.19300
C480        C  0.88015272  0.68308893  0.67812747    -0.09900
C481        C  0.85583035  0.69368060  0.65312523    -0.10700
C482        C  0.82919780  0.71673544  0.66239854     0.20800
C483        C  0.82658894  0.72866727  0.69682762    -0.12800
C484        C  0.85085839  0.71809569  0.72177880    -0.11000
C485        C  0.80566352  0.72984391  0.63642803     0.01800
C486        C  0.78639754  0.74359691  0.61584021    -0.31000
C487        C  0.90427589  0.68709868  0.73762018     0.03200
C488        C  0.92665760  0.68317928  0.75927789    -0.32700
H489        H  0.90108231  0.66582631  0.67057500     0.14200
H490        H  0.85818141  0.68448125  0.62650547     0.14000
H491        H  0.80621257  0.74666841  0.70420504     0.13900
H492        H  0.84898755  0.72806265  0.74816412     0.12900
C493        C  0.71273798  0.82900211  0.65969957     0.19300
C494        C  0.70821929  0.81838693  0.69433159    -0.09900
C495        C  0.69792376  0.84246672  0.71969980    -0.10700
C496        C  0.69212101  0.87726124  0.71053192     0.20800
C497        C  0.69583004  0.88766717  0.67573893    -0.12800
C498        C  0.70612325  0.86359384  0.65037934    -0.11000
C499        C  0.68492625  0.90277246  0.73710488     0.01800
C500        C  0.68162956  0.92481657  0.75928273    -0.31000
C501        C  0.72692578  0.80520555  0.63446716     0.03200
C502        C  0.74184999  0.78601948  0.61458831    -0.32700
H503        H  0.71357698  0.79177102  0.70188080     0.14200
H504        H  0.69539649  0.83418280  0.74656049     0.14000
H505        H  0.69166784  0.91455380  0.66840103     0.13900
H506        H  0.70983838  0.87214866  0.62374361     0.12900
C507        C  0.88113882  0.87965156  0.52532656     0.19300
C508        C  0.89105125  0.85052483  0.54483639    -0.09900
C509        C  0.86635293  0.82567274  0.55430006    -0.10700
C510        C  0.83158453  0.82978159  0.54431477     0.20800
C511        C  0.82173040  0.85849884  0.52412003    -0.12800
C512        C  0.84649445  0.88341257  0.51462420    -0.11000
C513        C  0.80593612  0.80584560  0.55716043     0.01800
C514        C  0.78595998  0.78634414  0.57136969    -0.31000
C515        C  0.90623965  0.90646371  0.51824131     0.03200
C516        C  0.92804067  0.92874740  0.51504779    -0.32700
H517        H  0.91771302  0.84743845  0.55340474     0.14200
H518        H  0.87419872  0.80370676  0.57013275     0.14000
H519        H  0.79485428  0.86205668  0.51648534     0.13900
H520        H  0.83850969  0.90593413  0.49968524     0.12900
C521        C  0.66911118  0.32733217  0.04211707     0.19300
C522        C  0.63357230  0.31951897  0.04243179    -0.09900
C523        C  0.60938868  0.34417787  0.03107285    -0.10700
C524        C  0.62061252  0.37678528  0.01933749     0.20800
C525        C  0.65622432  0.38427342  0.01814315    -0.12800
C526        C  0.68043495  0.35958274  0.02950719    -0.11000
C527        C  0.59548003  0.40341676  0.01152584     0.01800
C528        C  0.57384522  0.42591308  0.00853559    -0.31000
C529        C  0.69353699  0.30331154  0.05718531     0.03200
C530        C  0.71288612  0.28385646  0.07241284    -0.32700
H531        H  0.62451466  0.29476507  0.05236526     0.14200
H532        H  0.58191890  0.33820467  0.03240379     0.14000
H533        H  0.66519112  0.40950428  0.00941151     0.13900
H534        H  0.70784196  0.36598671  0.02938300     0.12900
C535        C  0.66880658  0.67296561  0.04869045     0.19300
C536        C  0.63578421  0.67260262  0.06394266    -0.09900
C537        C  0.61147313  0.64738720  0.05410847    -0.10700
C538        C  0.61999654  0.62232860  0.02895425     0.20800
C539        C  0.65284859  0.62297711  0.01324962    -0.12800
C540        C  0.67722560  0.64825522  0.02311535    -0.11000
C541        C  0.59541098  0.59524608  0.02062508     0.01800
C542        C  0.57403849  0.57265503  0.01631117    -0.31000
C543        C  0.69445293  0.69737513  0.06104710     0.03200
C544        C  0.71497502  0.71687449  0.07473359    -0.32700
H545        H  0.62906050  0.69141533  0.08391148     0.14200
H546        H  0.58623276  0.64707164  0.06654295     0.14000
H547        H  0.65979792  0.60364422  0.99388064     0.13900
H548        H  0.70276719  0.64813297  0.01132372     0.12900
C549        C  0.37941524  0.62004600  0.02643772     0.19300
C550        C  0.38894097  0.65508324  0.02986615    -0.09900
C551        C  0.36405416  0.68005742  0.03883935    -0.10700
C552        C  0.32948555  0.67015242  0.04441066     0.20800
C553        C  0.31980043  0.63521538  0.04033650    -0.12800
C554        C  0.34470120  0.61022518  0.03135471    -0.11000
C555        C  0.30473137  0.69527403  0.05705480     0.01800
C556        C  0.28524050  0.71560298  0.07095243    -0.31000
C557        C  0.40556455  0.59402757  0.01978251     0.03200
C558        C  0.42781163  0.57219130  0.01618870    -0.32700
H559        H  0.41571803  0.66297028  0.02633461     0.14200
H560        H  0.37192183  0.70692363  0.04224829     0.14000
H561        H  0.29322641  0.62718655  0.04491307     0.13900
H562        H  0.33704750  0.58319317  0.02898189     0.12900
C563        C  0.37709451  0.38178301  0.02028604     0.19300
C564        C  0.35200831  0.39163691  0.04478947    -0.09900
C565        C  0.32698520  0.36777104  0.05578254    -0.10700
C566        C  0.32684882  0.33386563  0.04234899     0.20800
C567        C  0.35142136  0.32414488  0.01721232    -0.12800
C568        C  0.37653326  0.34808874  0.00618580    -0.11000
C569        C  0.30301281  0.30871308  0.05638479     0.01800
C570        C  0.28405836  0.28878043  0.07141014    -0.31000
C571        C  0.40455090  0.40572478  0.01174501     0.03200
C572        C  0.42749867  0.42683362  0.00851706    -0.32700
H573        H  0.35231414  0.41752922  0.05603318     0.14200
H574        H  0.30826872  0.37549925  0.07539201     0.14000
H575        H  0.35169512  0.29790653  0.00683011     0.13900
H576        H  0.39594287  0.34010632  0.98739121     0.12900
C577        C  0.32827071  0.22410069  0.50055171     0.19300
C578        C  0.34894519  0.19441187  0.50489725    -0.09900
C579        C  0.37387014  0.18575127  0.47978169    -0.10700
C580        C  0.37820466  0.20677197  0.45027611     0.20800
C581        C  0.35735454  0.23631261  0.44588214    -0.12800
C582        C  0.33247790  0.24494779  0.47093790    -0.11000
C583        C  0.40449698  0.19871150  0.42484079     0.01800
C584        C  0.42665466  0.19382345  0.40318421    -0.31000
C585        C  0.30363242  0.23422493  0.52686334     0.03200
C586        C  0.28363589  0.24615387  0.54791329    -0.32700
H587        H  0.34604132  0.17821885  0.52779086     0.14200
H588        H  0.38992879  0.16290938  0.48350720     0.14000
H589        H  0.36053742  0.25282179  0.42324973     0.13900
H590        H  0.31676357  0.26806804  0.46740246     0.12900
C591        C  0.67148298  0.21162758  0.50197380     0.19300
C592        C  0.63666437  0.20854127  0.51201348    -0.09900
C593        C  0.61144196  0.19920348  0.48744264    -0.10700
C594        C  0.62097154  0.19293531  0.45276165     0.20800
C595        C  0.65592319  0.19516822  0.44292093    -0.12800
C596        C  0.68115168  0.20451186  0.46749929    -0.11000
C597        C  0.59465487  0.18682253  0.42682468     0.01800
C598        C  0.57249549  0.18439068  0.40473440    -0.31000
C599        C  0.69664410  0.22496905  0.52625064     0.03200
C600        C  0.71650015  0.23920925  0.54596268    -0.32700
H601        H  0.62890278  0.21430754  0.53854957     0.14200
H602        H  0.58444876  0.19780062  0.49524935     0.14000
H603        H  0.66351213  0.19062556  0.41610366     0.13900
H604        H  0.70797488  0.20714287  0.45942590     0.12900
C605        C  0.66685313  0.21032578  0.15795607     0.19300
C606        C  0.67726004  0.18815495  0.18501027    -0.09900
C607        C  0.65311230  0.17720525  0.20994262    -0.10700
C608        C  0.61852163  0.18840396  0.20783504     0.20800
C609        C  0.60802354  0.20987663  0.18029194    -0.12800
C610        C  0.63210992  0.22080636  0.15543449    -0.11000
C611        C  0.59426075  0.18043309  0.23516833     0.01800
C612        C  0.57295764  0.17793750  0.25801413    -0.31000
C613        C  0.69201843  0.22452948  0.13426814     0.03200
C614        C  0.71204594  0.23949778  0.11539201    -0.32700
H615        H  0.70413544  0.18011836  0.18734144     0.14200
H616        H  0.66157901  0.16084248  0.23129743     0.14000
H617        H  0.58142165  0.21892738  0.17856623     0.13900
H618        H  0.62384363  0.23815383  0.13478182     0.12900
C619        C  0.38133770  0.19642975  0.20706675     0.19300
C620        C  0.39193564  0.20794269  0.17412422    -0.09900
C621        C  0.36717793  0.21792207  0.14936280    -0.10700
C622        C  0.33174907  0.21640604  0.15746581     0.20800
C623        C  0.32112176  0.20401924  0.19006432    -0.12800
C624        C  0.34588042  0.19404016  0.21482904    -0.11000
C625        C  0.30657424  0.23031520  0.13355514     0.01800
C626        C  0.28614707  0.24488775  0.11474358    -0.31000
C627        C  0.40679873  0.18961754  0.23367494     0.03200
C628        C  0.42826319  0.18656832  0.25637299    -0.32700
H629        H  0.41929703  0.21011658  0.16794710     0.14200
H630        H  0.37566306  0.22774442  0.12432779     0.14000
H631        H  0.29379263  0.20303079  0.19667606     0.13900
H632        H  0.33742480  0.18540207  0.24030872     0.12900
C633        C  0.19606986  0.62346206  0.45482113     0.19300
C634        C  0.19289082  0.61562665  0.49033859    -0.09900
C635        C  0.20164317  0.64057145  0.51547786    -0.10700
C636        C  0.21354865  0.67339458  0.50512985     0.20800
C637        C  0.21593367  0.68148094  0.46962618    -0.12800
C638        C  0.20719670  0.65656303  0.44451413    -0.11000
C639        C  0.22635993  0.69762875  0.53063478     0.01800
C640        C  0.24069237  0.71704307  0.55073016    -0.31000
C641        C  0.19013322  0.59698612  0.42896901     0.03200
C642        C  0.18745966  0.57483151  0.40686787    -0.32700
H643        H  0.18452187  0.59002038  0.49856279     0.14200
H644        H  0.20006593  0.63396739  0.54288270     0.14000
H645        H  0.22546316  0.70667558  0.46138127     0.13900
H646        H  0.20995259  0.66279652  0.41711595     0.12900
C647        C  0.19332957  0.38281021  0.45547420     0.19300
C648        C  0.20612990  0.39398752  0.48785197    -0.09900
C649        C  0.21543644  0.36963076  0.51322638    -0.10700
C650        C  0.21195586  0.33398990  0.50634514     0.20800
C651        C  0.19837862  0.32281051  0.47428640    -0.12800
C652        C  0.18906851  0.34718570  0.44888872    -0.11000
C653        C  0.22511317  0.30903515  0.53092166     0.01800
C654        C  0.23939935  0.28883774  0.55021288    -0.31000
C655        C  0.18697707  0.40779320  0.42831496     0.03200
C656        C  0.18441873  0.42926103  0.40559322    -0.32700
H657        H  0.20976524  0.42145742  0.49312822     0.14200
H658        H  0.22622186  0.37853859  0.53779965     0.14000
H659        H  0.19589896  0.29529470  0.46858427     0.13900
H660        H  0.17943340  0.33825255  0.42385305     0.12900
C661        C  0.21581275  0.67320654  0.16130097     0.19300
C662        C  0.20733685  0.63907559  0.15162451    -0.09900
C663        C  0.19826600  0.61475976  0.17709612    -0.10700
C664        C  0.19767157  0.62448169  0.21233028     0.20800
C665        C  0.20549906  0.65879796  0.22193514    -0.12800
C666        C  0.21456474  0.68311443  0.19646188    -0.11000
C667        C  0.19118121  0.59876063  0.23870857     0.01800
C668        C  0.18800553  0.57665008  0.26069889    -0.31000
C669        C  0.22850733  0.69721319  0.13563598     0.03200
C670        C  0.24237153  0.71651698  0.11522849    -0.32700
H671        H  0.20856356  0.63106765  0.12454366     0.14200
H672        H  0.19249890  0.58822872  0.16941638     0.14000
H673        H  0.20536147  0.66652530  0.24912518     0.13900
H674        H  0.22141651  0.70935768  0.20424430     0.12900
C675        C  0.21347591  0.33210264  0.16109248     0.19300
C676        C  0.20680623  0.36634954  0.15060376    -0.09900
C677        C  0.19672076  0.39128071  0.17518599    -0.10700
C678        C  0.19327391  0.38202225  0.21032348     0.20800
C679        C  0.19890391  0.34752387  0.22060924    -0.12800
C680        C  0.20899421  0.32259973  0.19603167    -0.11000
C681        C  0.18689458  0.40836207  0.23620956     0.01800
C682        C  0.18449825  0.43044520  0.25842114    -0.31000
C683        C  0.22769235  0.30757356  0.13667261     0.03200
C684        C  0.24223120  0.28814478  0.11678971    -0.32700
H685        H  0.21044552  0.37400019  0.12367984     0.14200
H686        H  0.19266984  0.41793733  0.16700440     0.14000
H687        H  0.19654657  0.34015536  0.24775634     0.13900
H688        H  0.21432900  0.29623704  0.20443754     0.12900
C689        C  0.67291523  0.78348198  0.50009211     0.19300
C690        C  0.64735692  0.80765508  0.50955986    -0.09900
C691        C  0.62170993  0.81724987  0.48550357    -0.10700
C692        C  0.62159304  0.80265453  0.45197449     0.20800
C693        C  0.64740843  0.77881262  0.44244715    -0.12800
C694        C  0.67299533  0.76924241  0.46644682    -0.11000
C695        C  0.59429077  0.81073229  0.42767227     0.01800
C696        C  0.57161601  0.81467412  0.40634794    -0.31000
C697        C  0.69792779  0.77161317  0.52524332     0.03200
C698        C  0.71804597  0.75855380  0.54545263    -0.32700
H699        H  0.64693519  0.81860271  0.53562188     0.14200
H700        H  0.60173596  0.83556026  0.49318131     0.14000
H701        H  0.64743618  0.76723030  0.41665345     0.13900
H702        H  0.69249359  0.75033090  0.45896881     0.12900
C703        C  0.32993897  0.78554680  0.50530955     0.19300
C704        C  0.31894461  0.80115144  0.47417497    -0.09900
C705        C  0.34330109  0.81039782  0.44874907    -0.10700
C706        C  0.37873746  0.80404546  0.45435509     0.20800
C707        C  0.38971992  0.78895913  0.48573177    -0.12800
C708        C  0.36540368  0.77973118  0.51111515    -0.11000
C709        C  0.40372933  0.81118537  0.42736481     0.01800
C710        C  0.42538175  0.81474333  0.40494143    -0.31000
C711        C  0.30490954  0.77323204  0.53025914     0.03200
C712        C  0.28499455  0.75976433  0.55039892    -0.32700
H713        H  0.29156240  0.80549337  0.46926956     0.14200
H714        H  0.33446873  0.82184565  0.42450904     0.14000
H715        H  0.41700600  0.78372012  0.49028688     0.13900
H716        H  0.37418468  0.76740945  0.53494535     0.12900
C717        C  0.62257877  0.80759574  0.21341778     0.19300
C718        C  0.61246817  0.79978116  0.17915459    -0.09900
C719        C  0.63728194  0.78976874  0.15450996    -0.10700
C720        C  0.67238673  0.78752074  0.16394753     0.20800
C721        C  0.68264067  0.79596990  0.19804156    -0.12800
C722        C  0.65778900  0.80599135  0.22272670    -0.11000
C723        C  0.69729010  0.77413771  0.13933704     0.01800
C724        C  0.71672974  0.76001478  0.11909671    -0.31000
C725        C  0.59652732  0.81483064  0.23939883     0.03200
C726        C  0.57397413  0.81800207  0.26099181    -0.32700
H727        H  0.58531770  0.80064496  0.17170784     0.14200
H728        H  0.62899765  0.78300465  0.12833006     0.14000
H729        H  0.70966656  0.79403337  0.20572979     0.13900
H730        H  0.66590724  0.81169039  0.24920454     0.12900
C731        C  0.33096059  0.78723073  0.15915685     0.19300
C732        C  0.36607435  0.79002818  0.15011330    -0.09900
C733        C  0.39051562  0.80033567  0.17510681    -0.10700
C734        C  0.37993075  0.80787087  0.20923230     0.20800
C735        C  0.34470902  0.80573263  0.21809322    -0.12800
C736        C  0.32026063  0.79542550  0.19309037    -0.11000
C737        C  0.40547507  0.81518293  0.23567885     0.01800
C738        C  0.42724138  0.81828041  0.25810412    -0.31000
C739        C  0.30640097  0.77352457  0.13442141     0.03200
C740        C  0.28649807  0.75932668  0.11470026    -0.32700
H741        H  0.37464529  0.78344525  0.12402272     0.14200
H742        H  0.41772425  0.80160245  0.16806780     0.14000
H743        H  0.33628998  0.81119580  0.24448718     0.13900
H744        H  0.29320222  0.79303790  0.20041390     0.12900
C745        C  0.79150772  0.67150604  0.50325184     0.19300
C746        C  0.79575808  0.68076329  0.46820780    -0.09900
C747        C  0.80575411  0.65570237  0.44371843    -0.10700
C748        C  0.81152131  0.62127627  0.45417052     0.20800
C749        C  0.80810765  0.61220648  0.48937063    -0.12800
C750        C  0.79811341  0.63728069  0.51387064    -0.11000
C751        C  0.81811242  0.59482324  0.42841330     0.01800
C752        C  0.82054785  0.57258855  0.40633635    -0.31000
C753        C  0.77751851  0.69629817  0.52759422     0.03200
C754        C  0.76268054  0.71612010  0.54689017    -0.32700
H755        H  0.79038988  0.70707378  0.45966983     0.14200
H756        H  0.80802251  0.66293382  0.41652287     0.14000
H757        H  0.81220806  0.58560093  0.49768577     0.13900
H758        H  0.79458083  0.62977629  0.54085132     0.12900
C759        C  0.80605158  0.37964811  0.45491113     0.19300
C760        C  0.78552483  0.38898171  0.48356954    -0.09900
C761        C  0.77605132  0.36394881  0.50817489    -0.10700
C762        C  0.78704952  0.32940933  0.50430617     0.20800
C763        C  0.80824169  0.32018133  0.47608684    -0.12800
C764        C  0.81773589  0.34526412  0.45143383    -0.11000
C765        C  0.77434664  0.30325828  0.52790144     0.01800
C766        C  0.76027180  0.28269647  0.54696312    -0.31000
C767        C  0.81317849  0.40493797  0.42816629     0.03200
C768        C  0.81644284  0.42660227  0.40567777    -0.32700
H769        H  0.77617533  0.41541914  0.48645243     0.14200
H770        H  0.75945076  0.37133584  0.52974019     0.14000
H771        H  0.81669021  0.29350307  0.47269069     0.13900
H772        H  0.83345949  0.33769280  0.42928956     0.12900
C773        C  0.80249369  0.37825361  0.21156139     0.19300
C774        C  0.80484217  0.38540777  0.17582387    -0.09900
C775        C  0.79486761  0.36023218  0.15135300    -0.10700
C776        C  0.78252626  0.32783983  0.16255242     0.20800
C777        C  0.78086450  0.32045293  0.19825870    -0.12800
C778        C  0.79083394  0.34559943  0.22270511    -0.11000
C779        C  0.76915759  0.30318508  0.13766195     0.01800
C780        C  0.75522477  0.28351701  0.11747823    -0.31000
C781        C  0.80993070  0.40496402  0.23685534     0.03200
C782        C  0.81372056  0.42723681  0.25871982    -0.32700
H783        H  0.81361278  0.41064735  0.16692513     0.14200
H784        H  0.79598591  0.36629852  0.12379806     0.14000
H785        H  0.77109676  0.29559136  0.20719498     0.13900
H786        H  0.78871002  0.33987091  0.25027237     0.12900
C787        C  0.80719445  0.62050721  0.21063907     0.19300
C788        C  0.81284918  0.65599876  0.21697251    -0.09900
C789        C  0.80287557  0.68070580  0.19211237    -0.10700
C790        C  0.78722498  0.67000762  0.16083397     0.20800
C791        C  0.78226666  0.63448917  0.15421346    -0.12800
C792        C  0.79223015  0.60981494  0.17903636    -0.11000
C793        C  0.77382572  0.69535865  0.13672412     0.01800
C794        C  0.75957989  0.71567317  0.11747895    -0.31000
C795        C  0.81445577  0.59518089  0.23731666     0.03200
C796        C  0.81765900  0.57336130  0.25965981    -0.32700
H797        H  0.82416620  0.66459455  0.24141157     0.14200
H798        H  0.80656600  0.70811925  0.19763169     0.14000
H799        H  0.76992707  0.62593264  0.13025565     0.13900
H800        H  0.78750274  0.58247753  0.17394764     0.12900
C801        C  0.67289520  0.67244440  0.61647056     0.19300
C802        C  0.68279932  0.63902766  0.62707212    -0.09900
C803        C  0.65747661  0.61443793  0.63571882    -0.10700
C804        C  0.62219376  0.62319342  0.63374474     0.20800
C805        C  0.61234896  0.65686132  0.62391852    -0.12800
C806        C  0.63765346  0.68143420  0.61528829    -0.11000
C807        C  0.59609078  0.59709076  0.63954696     0.01800
C808        C  0.57410696  0.57494093  0.64215228    -0.31000
C809        C  0.69849053  0.69651693  0.60389007     0.03200
C810        C  0.71856088  0.71604648  0.58990586    -0.32700
H811        H  0.70997461  0.63172199  0.62774022     0.14200
H812        H  0.66535035  0.58840402  0.64307080     0.14000
H813        H  0.58513642  0.66383250  0.62209046     0.13900
H814        H  0.62972493  0.70710683  0.60679357     0.12900
C815        C  0.37863715  0.62080244  0.63862250     0.19300
C816        C  0.38571047  0.65631053  0.64306908    -0.09900
C817        C  0.36063476  0.68112566  0.63416973    -0.10700
C818        C  0.32841388  0.67050010  0.62081595     0.20800
C819        C  0.32103271  0.63498000  0.61723946    -0.12800
C820        C  0.34608020  0.61019032  0.62613088    -0.11000
C821        C  0.30409472  0.69584504  0.60798790     0.01800
C822        C  0.28462506  0.71608387  0.59402724    -0.31000
C823        C  0.40547698  0.59537346  0.64434019     0.03200
C824        C  0.42802594  0.57370340  0.64633692    -0.32700
H825        H  0.41088218  0.66481438  0.65247832     0.14200
H826        H  0.36671062  0.70853751  0.63675262     0.14000
H827        H  0.29631315  0.62649368  0.60665472     0.13900
H828        H  0.34041467  0.58282202  0.62236305     0.12900
C829        C  0.33022856  0.32978301  0.62035313     0.19300
C830        C  0.36482622  0.32398805  0.61074075    -0.09900
C831        C  0.39035249  0.34848784  0.61908561    -0.10700
C832        C  0.38142542  0.37893696  0.63707990     0.20800
C833        C  0.34696884  0.38435906  0.64751435    -0.12800
C834        C  0.32138367  0.35980892  0.63913979    -0.11000
C835        C  0.40724613  0.40545770  0.64264406     0.01800
C836        C  0.42918891  0.42774690  0.64470052    -0.31000
C837        C  0.30370460  0.30637952  0.60811432     0.03200
C838        C  0.28315463  0.28740884  0.59382224    -0.32700
H839        H  0.37188794  0.30101324  0.59592871     0.14200
H840        H  0.41685930  0.34412602  0.61071527     0.14000
H841        H  0.33974722  0.40792271  0.66126159     0.13900
H842        H  0.29464936  0.36468961  0.64641376     0.12900
C843        C  0.67258645  0.32931968  0.61504284     0.19300
C844        C  0.64013238  0.31972489  0.62839604    -0.09900
C845        C  0.61558100  0.34529255  0.63661729    -0.10700
C846        C  0.62339330  0.38052662  0.63147146     0.20800
C847        C  0.65610738  0.39011564  0.61877632    -0.12800
C848        C  0.68063413  0.36457416  0.61056618    -0.11000
C849        C  0.59729719  0.40670617  0.63733164     0.01800
C850        C  0.57519772  0.42873855  0.64029294    -0.31000
C851        C  0.69658127  0.30316538  0.60325238     0.03200
C852        C  0.71613978  0.28263030  0.58985420    -0.32700
H853        H  0.63352821  0.29252651  0.63164565     0.14200
H854        H  0.59029525  0.33757333  0.64623514     0.14000
H855        H  0.66236205  0.41725560  0.61450909     0.13900
H856        H  0.70553035  0.37225958  0.59993587     0.12900
loop_ 
_geom_bond_atom_site_label_1 
_geom_bond_atom_site_label_2 
_geom_bond_distance 
_geom_bond_site_symmetry_2 
_ccdc_geom_bond_type 
O1           Ni9   1.915       .  S
O1           C11   1.279       .  A
O2           Ni9   1.915       .  S
O2           C12   1.279       .  A
O3           Ni9   1.915       .  S
O3           C13   1.279       .  A
O4           Ni9   1.915       .  S
O4           C14   1.279       .  A
O5          Ni10   1.920       .  S
O5           C14   1.280       .  A
O6          Ni10   1.920       .  S
O6           C13   1.280       .  A
O7          Ni10   1.919       .  S
O7           C12   1.280       .  A
O8          Ni10   1.919       .  S
O8           C11   1.280       .  A
Ni9         Ni10   2.394       .  S
C11         C808   1.433       .  S
C12         C836   1.434       .  S
C13         C824   1.434       .  S
C14         C850   1.435       .  S
O15         Ni23   1.923       .  S
O15          C25   1.281       .  A
O16         Ni23   1.923       .  S
O16          C26   1.281       .  A
O17         Ni23   1.921       .  S
O17          C27   1.280       .  A
O18         Ni23   1.921       .  S
O18          C28   1.280       .  A
O19         Ni24   1.913       .  S
O19          C28   1.279       .  A
O20         Ni24   1.914       .  S
O20          C27   1.279       .  A
O21         Ni24   1.915       .  S
O21          C26   1.279       .  A
O22         Ni24   1.915       .  S
O22          C25   1.279       .  A
Ni23        Ni24   2.394       .  S
C25         C796   1.436       .  S
C26         C768   1.437       .  S
C27         C782   1.434       .  S
C28         C752   1.434       .  S
O29         Ni37   1.915       .  S
O29          C39   1.279       .  A
O30         Ni37   1.915       .  S
O30          C40   1.279       .  A
O31         Ni37   1.912       .  S
O31          C41   1.279       .  A
O32         Ni37   1.912       .  S
O32          C42   1.279       .  A
O33         Ni38   1.921       .  S
O33          C42   1.280       .  A
O34         Ni38   1.920       .  S
O34          C41   1.280       .  A
O35         Ni38   1.925       .  S
O35          C40   1.281       .  A
O36         Ni38   1.924       .  S
O36          C39   1.281       .  A
Ni37        Ni38   2.394       .  S
C39         C710   1.437       .  S
C40         C726   1.437       .  S
C41         C696   1.432       .  S
C42         C738   1.433       .  S
O43         Ni51   1.920       .  S
O43          C53   1.280       .  A
O44         Ni51   1.921       .  S
O44          C54   1.280       .  A
O45         Ni51   1.918       .  S
O45          C55   1.279       .  A
O46         Ni51   1.919       .  S
O46          C56   1.280       .  A
O47         Ni52   1.914       .  S
O47          C56   1.279       .  A
O48         Ni52   1.914       .  S
O48          C55   1.279       .  A
O49         Ni52   1.913       .  S
O49          C54   1.279       .  A
O50         Ni52   1.913       .  S
O50          C53   1.279       .  A
Ni51        Ni52   2.395       .  S
C53         C668   1.433       .  S
C54         C656   1.434       .  S
C55         C642   1.432       .  S
C56         C682   1.433       .  S
O57         Ni65   1.923       .  S
O57          C67   1.281       .  A
O58         Ni65   1.923       .  S
O58          C68   1.281       .  A
O59         Ni65   1.918       .  S
O59          C69   1.280       .  A
O60         Ni65   1.919       .  S
O60          C70   1.280       .  A
O61         Ni66   1.914       .  S
O61          C70   1.279       .  A
O62         Ni66   1.913       .  S
O62          C69   1.279       .  A
O63         Ni66   1.912       .  S
O63          C68   1.279       .  A
O64         Ni66   1.914       .  S
O64          C67   1.279       .  A
Ni65        Ni66   2.395       .  S
C67         C584   1.436       .  S
C68         C612   1.434       .  S
C69         C598   1.432       .  S
C70         C628   1.433       .  S
O71         Ni79   1.915       .  S
O71          C81   1.279       .  A
O72         Ni79   1.914       .  S
O72          C82   1.279       .  A
O73         Ni79   1.915       .  S
O73          C83   1.279       .  A
O74         Ni79   1.914       .  S
O74          C84   1.279       .  A
O75         Ni80   1.923       .  S
O75          C84   1.281   1_556  A
O76         Ni80   1.923       .  S
O76          C83   1.281   1_556  A
O77         Ni80   1.923       .  S
O77          C82   1.281   1_556  A
O78         Ni80   1.923       .  S
O78          C81   1.281   1_556  A
Ni79        Ni80   2.394   1_554  S
C81         C558   1.437       .  S
C82         C528   1.435       .  S
C83         C542   1.437       .  S
C84         C572   1.435       .  S
C85          C86   1.563       .  S
C85         C698   1.472       .  S
C85         C754   1.474       .  S
C85         C810   1.473       .  S
C86         C486   1.473       .  S
C86         C502   1.475       .  S
C86         C514   1.474       .  S
C87          C88   1.564       .  S
C87         C600   1.471       .  S
C87         C766   1.476       .  S
C87         C852   1.474       .  S
C88         C444   1.477       .  S
C88         C458   1.471       .  S
C88         C472   1.475       .  S
C89          C90   1.564       .  S
C89         C640   1.471       .  S
C89         C712   1.476       .  S
C89         C822   1.474       .  S
C90         C402   1.476       .  S
C90         C418   1.472       .  S
C90         C432   1.475       .  S
C91          C92   1.567       .  S
C91         C544   1.476       .  S
C91         C724   1.477       .  S
C91         C794   1.475       .  S
C92         C362   1.476       .  S
C92         C374   1.476       .  S
C92         C388   1.474       .  S
C93          C94   1.565       .  S
C93         C586   1.475       .  S
C93         C654   1.474       .  S
C93         C838   1.474       .  S
C94         C318   1.474       .  S
C94         C332   1.474       .  S
C94         C346   1.475       .  S
C95          C96   1.565       .  S
C95         C556   1.476       .  S
C95         C670   1.473       .  S
C95         C740   1.473       .  S
C96         C278   1.473       .  S
C96         C292   1.474       .  S
C96         C306   1.476       .  S
C97          C98   1.564       .  S
C97         C530   1.475       .  S
C97         C614   1.474       .  S
C97         C780   1.473       .  S
C98         C234   1.474       .  S
C98         C248   1.474       .  S
C98         C262   1.475       .  S
C99         C100   1.562       .  S
C99         C570   1.476       .  S
C99         C626   1.473       .  S
C99         C684   1.473       .  S
C100        C194   1.471       .  S
C100        C208   1.471       .  S
C100        C220   1.474       .  S
O101       Ni109   1.914       .  S
O101        C111   1.279       .  A
O102       Ni109   1.913   1_565  S
O102        C112   1.279       .  A
O103       Ni109   1.913       .  S
O103        C113   1.279       .  A
O104       Ni109   1.913   1_565  S
O104        C114   1.279       .  A
O105       Ni110   1.918   1_565  S
O105        C114   1.279       .  A
O106       Ni110   1.918       .  S
O106        C113   1.280       .  A
O107       Ni110   1.922   1_565  S
O107        C112   1.281       .  A
O108       Ni110   1.922       .  S
O108        C111   1.281       .  A
Ni109      Ni110   2.395       .  S
C111        C334   1.435       .  S
C112        C290   1.435       .  S
C113        C206   1.432       .  S
C114        C416   1.432       .  S
O115       Ni123   1.912   1_455  S
O115        C125   1.279       .  A
O116       Ni123   1.913       .  S
O116        C126   1.279       .  A
O117       Ni123   1.915   1_455  S
O117        C127   1.279       .  A
O118       Ni123   1.914       .  S
O118        C128   1.279       .  A
O119       Ni124   1.921       .  S
O119        C128   1.280       .  A
O120       Ni124   1.922   1_455  S
O120        C127   1.281       .  A
O121       Ni124   1.918       .  S
O121        C126   1.280       .  A
O122       Ni124   1.918   1_455  S
O122        C125   1.279       .  A
Ni123      Ni124   2.395       .  S
C125        C192   1.431       .  S
C126        C460   1.431       .  S
C127        C348   1.436       .  S
C128        C250   1.435       .  S
O129       Ni137   1.922   1_655  S
O129        C139   1.280       .  A
O130       Ni137   1.921   1_565  S
O130        C140   1.280       .  A
O131       Ni137   1.921       .  S
O131        C141   1.280       .  A
O132       Ni137   1.921   1_665  S
O132        C142   1.280       .  A
O133       Ni138   1.915   1_665  S
O133        C142   1.279       .  A
O134       Ni138   1.915       .  S
O134        C141   1.279       .  A
O135       Ni138   1.915   1_565  S
O135        C140   1.279       .  A
O136       Ni138   1.916   1_655  S
O136        C139   1.279       .  A
Ni137      Ni138   2.394       .  S
C139        C264   1.436       .  S
C140        C304   1.435       .  S
C141        C222   1.435       .  S
C142        C390   1.435       .  S
O143       Ni151   1.925   1_545  S
O143        C153   1.281       .  A
O144       Ni151   1.925       .  S
O144        C154   1.281       .  A
O145       Ni151   1.921   1_545  S
O145        C155   1.280       .  A
O146       Ni151   1.922       .  S
O146        C156   1.280       .  A
O147       Ni152   1.914       .  S
O147        C156   1.279       .  A
O148       Ni152   1.913   1_545  S
O148        C155   1.279       .  A
O149       Ni152   1.914       .  S
O149        C154   1.279       .  A
O150       Ni152   1.914   1_545  S
O150        C153   1.279       .  A
Ni151      Ni152   2.394       .  S
C153        C446   1.437       .  S
C154        C376   1.437       .  S
C155        C236   1.434       .  S
C156        C500   1.435       .  S
O157       Ni165   1.922       .  S
O157        C167   1.280       .  A
O158       Ni165   1.921   1_665  S
O158        C168   1.280       .  A
O159       Ni165   1.923   1_655  S
O159        C169   1.281       .  A
O160       Ni165   1.923   1_565  S
O160        C170   1.281       .  A
O161       Ni166   1.914   1_565  S
O161        C170   1.279       .  A
O162       Ni166   1.914   1_655  S
O162        C169   1.279       .  A
O163       Ni166   1.914   1_665  S
O163        C168   1.279       .  A
O164       Ni166   1.913       .  S
O164        C167   1.279       .  A
Ni165      Ni166   2.394       .  S
C167        C320   1.434       .  S
C168        C516   1.435       .  S
C169        C474   1.435       .  S
C170        C430   1.436       .  S
O171       Ni179   1.914   1_655  S
O171        C181   1.279       .  A
O172       Ni179   1.914       .  S
O172        C182   1.279       .  A
O173       Ni179   1.912   1_655  S
O173        C183   1.279       .  A
O174       Ni179   1.912       .  S
O174        C184   1.279       .  A
O175       Ni180   1.921   1_455  S
O175        C184   1.280       .  A
O176       Ni180   1.921       .  S
O176        C183   1.280       .  A
O177       Ni180   1.924   1_455  S
O177        C182   1.281       .  A
O178       Ni180   1.924       .  S
O178        C181   1.281       .  A
Ni179      Ni180   2.394   1_455  S
C181        C360   1.436       .  S
C182        C404   1.436       .  S
C183        C488   1.433       .  S
C184        C276   1.433       .  S
C185        C193   1.435       .  S
C185        C186   1.400   1_554  A
C185        C190   1.401       .  A
C186        C187   1.397       .  A
C186        H195   1.084       .  S
C187        C188   1.400       .  A
C187        H196   1.084       .  S
C188        C191   1.436       .  S
C188        C189   1.401       .  A
C189        C190   1.398   1_556  A
C189        H197   1.083       .  S
C190        H198   1.084       .  S
C191        C192   1.204       .  T
C193        C194   1.204       .  T
C199        C207   1.435   1_556  S
C199        C200   1.401   1_556  A
C199        C204   1.400       .  A
C200        C201   1.398   1_554  A
C200        H209   1.084       .  S
C201        C202   1.401       .  A
C201        H210   1.083       .  S
C202        C205   1.437       .  S
C202        C203   1.401       .  A
C203        C204   1.397       .  A
C203        H211   1.084       .  S
C204        H212   1.084       .  S
C205        C206   1.204       .  T
C207        C208   1.204       .  T
C213        C221   1.440       .  S
C213        C214   1.401       .  A
C213        C218   1.401       .  A
C214        C215   1.400       .  A
C214        H223   1.083       .  S
C215        C216   1.401       .  A
C215        H224   1.083       .  S
C216        C219   1.438       .  S
C216        C217   1.401       .  A
C217        C218   1.398       .  A
C217        H225   1.084       .  S
C218        H226   1.083       .  S
C219        C220   1.206       .  T
C221        C222   1.206       .  T
C227        C235   1.438       .  S
C227        C228   1.400       .  A
C227        C232   1.402       .  A
C228        C229   1.396       .  A
C228        H237   1.084       .  S
C229        C230   1.400       .  A
C229        H238   1.084       .  S
C230        C233   1.437   1_556  S
C230        C231   1.402   1_556  A
C231        C232   1.401   1_554  A
C231        H239   1.083       .  S
C232        H240   1.083       .  S
C233        C234   1.205       .  T
C235        C236   1.205       .  T
C241        C249   1.439       .  S
C241        C242   1.401       .  A
C241        C246   1.401       .  A
C242        C243   1.398   1_556  A
C242        H251   1.084       .  S
C243        C244   1.401       .  A
C243        H252   1.084       .  S
C244        C247   1.438       .  S
C244        C245   1.401   1_554  A
C245        C246   1.399       .  A
C245        H253   1.083       .  S
C246        H254   1.083       .  S
C247        C248   1.206       .  T
C249        C250   1.206       .  T
C255        C263   1.440       .  S
C255        C256   1.402       .  A
C255        C260   1.401       .  A
C256        C257   1.401       .  A
C256        H265   1.083       .  S
C257        C258   1.402       .  A
C257        H266   1.083       .  S
C258        C261   1.439       .  S
C258        C259   1.401       .  A
C259        C260   1.398       .  A
C259        H267   1.084       .  S
C260        H268   1.084       .  S
C261        C262   1.206       .  T
C263        C264   1.206       .  T
C269        C277   1.437       .  S
C269        C270   1.402       .  A
C269        C274   1.400   1_554  A
C270        C271   1.400   1_554  A
C270        H279   1.083       .  S
C271        C272   1.402       .  A
C271        H280   1.083       .  S
C272        C275   1.438       .  S
C272        C273   1.401       .  A
C273        C274   1.397       .  A
C273        H281   1.084       .  S
C274        H282   1.084       .  S
C275        C276   1.205       .  T
C277        C278   1.205       .  T
C283        C291   1.439       .  S
C283        C284   1.402       .  A
C283        C288   1.401   1_554  A
C284        C285   1.400   1_554  A
C284        H293   1.083       .  S
C285        C286   1.402       .  A
C285        H294   1.083       .  S
C286        C289   1.440       .  S
C286        C287   1.401       .  A
C287        C288   1.398       .  A
C287        H295   1.084       .  S
C288        H296   1.084       .  S
C289        C290   1.206       .  T
C291        C292   1.206       .  T
C297        C305   1.440       .  S
C297        C298   1.402       .  A
C297        C302   1.401       .  A
C298        C299   1.401       .  A
C298        H307   1.083       .  S
C299        C300   1.402       .  A
C299        H308   1.083       .  S
C300        C303   1.440       .  S
C300        C301   1.401       .  A
C301        C302   1.397       .  A
C301        H309   1.084       .  S
C302        H310   1.084       .  S
C303        C304   1.206       .  T
C305        C306   1.207       .  T
C311        C319   1.439       .  S
C311        C312   1.402       .  A
C311        C316   1.400       .  A
C312        C313   1.402       .  A
C312        H321   1.083       .  S
C313        C314   1.402       .  A
C313        H322   1.083       .  S
C314        C317   1.438       .  S
C314        C315   1.400       .  A
C315        C316   1.396       .  A
C315        H323   1.084       .  S
C316        H324   1.084       .  S
C317        C318   1.206       .  T
C319        C320   1.206       .  T
C325        C333   1.440       .  S
C325        C326   1.402       .  A
C325        C330   1.401       .  A
C326        C327   1.400       .  A
C326        H335   1.083       .  S
C327        C328   1.401       .  A
C327        H336   1.083       .  S
C328        C331   1.438       .  S
C328        C329   1.401       .  A
C329        C330   1.398       .  A
C329        H337   1.084       .  S
C330        H338   1.083       .  S
C331        C332   1.206       .  T
C333        C334   1.206       .  T
C339        C347   1.441       .  S
C339        C340   1.402       .  A
C339        C344   1.401       .  A
C340        C341   1.400       .  A
C340        H349   1.083       .  S
C341        C342   1.402       .  A
C341        H350   1.083       .  S
C342        C345   1.440       .  S
C342        C343   1.401       .  A
C343        C344   1.398       .  A
C343        H351   1.084       .  S
C344        H352   1.084       .  S
C345        C346   1.207       .  T
C347        C348   1.206       .  T
C353        C361   1.440       .  S
C353        C354   1.402       .  A
C353        C358   1.401   1_554  A
C354        C355   1.401   1_554  A
C354        H363   1.084       .  S
C355        C356   1.402       .  A
C355        H364   1.083       .  S
C356        C359   1.441       .  S
C356        C357   1.401       .  A
C357        C358   1.398       .  A
C357        H365   1.084       .  S
C358        H366   1.084       .  S
C359        C360   1.207       .  T
C361        C362   1.207       .  T
C367        C375   1.442       .  S
C367        C368   1.401       .  A
C367        C372   1.402       .  A
C368        C369   1.398       .  A
C368        H377   1.084       .  S
C369        C370   1.401   1_556  A
C369        H378   1.084       .  S
C370        C373   1.441       .  S
C370        C371   1.402       .  A
C371        C372   1.401   1_554  A
C371        H379   1.083       .  S
C372        H380   1.083       .  S
C373        C374   1.207       .  T
C375        C376   1.207       .  T
C381        C389   1.440       .  S
C381        C382   1.402       .  A
C381        C386   1.401       .  A
C382        C383   1.400       .  A
C382        H391   1.083       .  S
C383        C384   1.401       .  A
C383        H392   1.084       .  S
C384        C387   1.439       .  S
C384        C385   1.401       .  A
C385        C386   1.398       .  A
C385        H393   1.083       .  S
C386        H394   1.084       .  S
C387        C388   1.206       .  T
C389        C390   1.206       .  T
C395        C403   1.441       .  S
C395        C396   1.402       .  A
C395        C400   1.402       .  A
C396        C397   1.399       .  A
C396        H405   1.083       .  S
C397        C398   1.401       .  A
C397        H406   1.084       .  S
C398        C401   1.440       .  S
C398        C399   1.401       .  A
C399        C400   1.400       .  A
C399        H407   1.083       .  S
C400        H408   1.083       .  S
C401        C402   1.207       .  T
C403        C404   1.207       .  T
C409        C417   1.436       .  S
C409        C410   1.401       .  A
C409        C414   1.400       .  A
C410        C411   1.400       .  A
C410        H419   1.083       .  S
C411        C412   1.402       .  A
C411        H420   1.083       .  S
C412        C415   1.437       .  S
C412        C413   1.400       .  A
C413        C414   1.396       .  A
C413        H421   1.084       .  S
C414        H422   1.084       .  S
C415        C416   1.204       .  T
C417        C418   1.205       .  T
C423        C431   1.440       .  S
C423        C424   1.401       .  A
C423        C428   1.401       .  A
C424        C425   1.399       .  A
C424        H433   1.084       .  S
C425        C426   1.402       .  A
C425        H434   1.083       .  S
C426        C429   1.441       .  S
C426        C427   1.402       .  A
C427        C428   1.400       .  A
C427        H435   1.083       .  S
C428        H436   1.083       .  S
C429        C430   1.207       .  T
C431        C432   1.207       .  T
C437        C445   1.442       .  S
C437        C438   1.401       .  A
C437        C442   1.403       .  A
C438        C439   1.398       .  A
C438        H447   1.084       .  S
C439        C440   1.401       .  A
C439        H448   1.084       .  S
C440        C443   1.441       .  S
C440        C441   1.402       .  A
C441        C442   1.402       .  A
C441        H449   1.083       .  S
C442        H450   1.083       .  S
C443        C444   1.207       .  T
C445        C446   1.207       .  T
C451        C459   1.436       .  S
C451        C452   1.400       .  A
C451        C456   1.401       .  A
C452        C453   1.396       .  A
C452        H461   1.084       .  S
C453        C454   1.400       .  A
C453        H462   1.084       .  S
C454        C457   1.435       .  S
C454        C455   1.401       .  A
C455        C456   1.399       .  A
C455        H463   1.083       .  S
C456        H464   1.083       .  S
C457        C458   1.204       .  T
C459        C460   1.204       .  T
C465        C473   1.440       .  S
C465        C466   1.401       .  A
C465        C470   1.402       .  A
C466        C467   1.399       .  A
C466        H475   1.084       .  S
C467        C468   1.401       .  A
C467        H476   1.083       .  S
C468        C471   1.439       .  S
C468        C469   1.401       .  A
C469        C470   1.399       .  A
C469        H477   1.084       .  S
C470        H478   1.083       .  S
C471        C472   1.206       .  T
C473        C474   1.206       .  T
C479        C487   1.438       .  S
C479        C480   1.402       .  A
C479        C484   1.401       .  A
C480        C481   1.400       .  A
C480        H489   1.083       .  S
C481        C482   1.401       .  A
C481        H490   1.083       .  S
C482        C485   1.437       .  S
C482        C483   1.400       .  A
C483        C484   1.397       .  A
C483        H491   1.084       .  S
C484        H492   1.084       .  S
C485        C486   1.205       .  T
C487        C488   1.205       .  T
C493        C501   1.439       .  S
C493        C494   1.401       .  A
C493        C498   1.401       .  A
C494        C495   1.399       .  A
C494        H503   1.084       .  S
C495        C496   1.401       .  A
C495        H504   1.083       .  S
C496        C499   1.440       .  S
C496        C497   1.401       .  A
C497        C498   1.399       .  A
C497        H505   1.084       .  S
C498        H506   1.084       .  S
C499        C500   1.206       .  T
C501        C502   1.206       .  T
C507        C515   1.439       .  S
C507        C508   1.401       .  A
C507        C512   1.402       .  A
C508        C509   1.397       .  A
C508        H517   1.084       .  S
C509        C510   1.400       .  A
C509        H518   1.084       .  S
C510        C513   1.438       .  S
C510        C511   1.402       .  A
C511        C512   1.401       .  A
C511        H519   1.083       .  S
C512        H520   1.083       .  S
C513        C514   1.206       .  T
C515        C516   1.206       .  T
C521        C529   1.439       .  S
C521        C522   1.401       .  A
C521        C526   1.402       .  A
C522        C523   1.398       .  A
C522        H531   1.084       .  S
C523        C524   1.401       .  A
C523        H532   1.084       .  S
C524        C527   1.440       .  S
C524        C525   1.402       .  A
C525        C526   1.400       .  A
C525        H533   1.083       .  S
C526        H534   1.083       .  S
C527        C528   1.206       .  T
C529        C530   1.206       .  T
C535        C543   1.440       .  S
C535        C536   1.401       .  A
C535        C540   1.402       .  A
C536        C537   1.398       .  A
C536        H545   1.084       .  S
C537        C538   1.401       .  A
C537        H546   1.084       .  S
C538        C541   1.442       .  S
C538        C539   1.402       .  A
C539        C540   1.401       .  A
C539        H547   1.083   1_554  S
C540        H548   1.083       .  S
C541        C542   1.207       .  T
C543        C544   1.207       .  T
C549        C557   1.442       .  S
C549        C550   1.401       .  A
C549        C554   1.402       .  A
C550        C551   1.399       .  A
C550        H559   1.083       .  S
C551        C552   1.401       .  A
C551        H560   1.084       .  S
C552        C555   1.441       .  S
C552        C553   1.402       .  A
C553        C554   1.400       .  A
C553        H561   1.083       .  S
C554        H562   1.083       .  S
C555        C556   1.207       .  T
C557        C558   1.207       .  T
C563        C571   1.440       .  S
C563        C564   1.401       .  A
C563        C568   1.402       .  A
C564        C565   1.397       .  A
C564        H573   1.084       .  S
C565        C566   1.400       .  A
C565        H574   1.084       .  S
C566        C569   1.439       .  S
C566        C567   1.402       .  A
C567        C568   1.401       .  A
C567        H575   1.083       .  S
C568        H576   1.083   1_554  S
C569        C570   1.206       .  T
C571        C572   1.206       .  T
C577        C585   1.439       .  S
C577        C578   1.401       .  A
C577        C582   1.401       .  A
C578        C579   1.401       .  A
C578        H587   1.083       .  S
C579        C580   1.402       .  A
C579        H588   1.083       .  S
C580        C583   1.441       .  S
C580        C581   1.401       .  A
C581        C582   1.398       .  A
C581        H589   1.084       .  S
C582        H590   1.084       .  S
C583        C584   1.206       .  T
C585        C586   1.207       .  T
C591        C599   1.436       .  S
C591        C592   1.401       .  A
C591        C596   1.401       .  A
C592        C593   1.398       .  A
C592        H601   1.084       .  S
C593        C594   1.401       .  A
C593        H602   1.084       .  S
C594        C597   1.437       .  S
C594        C595   1.401       .  A
C595        C596   1.398       .  A
C595        H603   1.083       .  S
C596        H604   1.084       .  S
C597        C598   1.204       .  T
C599        C600   1.204       .  T
C605        C613   1.438       .  S
C605        C606   1.402       .  A
C605        C610   1.400       .  A
C606        C607   1.401       .  A
C606        H615   1.083       .  S
C607        C608   1.402       .  A
C607        H616   1.083       .  S
C608        C611   1.439       .  S
C608        C609   1.401       .  A
C609        C610   1.397       .  A
C609        H617   1.084       .  S
C610        H618   1.084       .  S
C611        C612   1.205       .  T
C613        C614   1.206       .  T
C619        C627   1.438       .  S
C619        C620   1.401       .  A
C619        C624   1.401       .  A
C620        C621   1.398       .  A
C620        H629   1.084       .  S
C621        C622   1.401       .  A
C621        H630   1.084       .  S
C622        C625   1.437       .  S
C622        C623   1.401       .  A
C623        C624   1.398       .  A
C623        H631   1.084       .  S
C624        H632   1.083       .  S
C625        C626   1.205       .  T
C627        C628   1.205       .  T
C633        C641   1.437       .  S
C633        C634   1.401       .  A
C633        C638   1.401       .  A
C634        C635   1.399       .  A
C634        H643   1.083       .  S
C635        C636   1.401       .  A
C635        H644   1.084       .  S
C636        C639   1.435       .  S
C636        C637   1.400       .  A
C637        C638   1.397       .  A
C637        H645   1.084       .  S
C638        H646   1.084       .  S
C639        C640   1.204       .  T
C641        C642   1.204       .  T
C647        C655   1.439       .  S
C647        C648   1.401       .  A
C647        C652   1.401       .  A
C648        C649   1.398       .  A
C648        H657   1.084       .  S
C649        C650   1.401       .  A
C649        H658   1.084       .  S
C650        C653   1.438       .  S
C650        C651   1.401       .  A
C651        C652   1.399       .  A
C651        H659   1.084       .  S
C652        H660   1.083       .  S
C653        C654   1.206       .  T
C655        C656   1.205       .  T
C661        C669   1.437       .  S
C661        C662   1.401       .  A
C661        C666   1.401       .  A
C662        C663   1.398       .  A
C662        H671   1.084       .  S
C663        C664   1.401       .  A
C663        H672   1.084       .  S
C664        C667   1.438       .  S
C664        C665   1.401       .  A
C665        C666   1.398       .  A
C665        H673   1.083       .  S
C666        H674   1.084       .  S
C667        C668   1.205       .  T
C669        C670   1.205       .  T
C675        C683   1.437       .  S
C675        C676   1.401       .  A
C675        C680   1.401       .  A
C676        C677   1.398       .  A
C676        H685   1.084       .  S
C677        C678   1.401       .  A
C677        H686   1.083       .  S
C678        C681   1.438       .  S
C678        C679   1.401       .  A
C679        C680   1.398       .  A
C679        H687   1.083       .  S
C680        H688   1.084       .  S
C681        C682   1.205       .  T
C683        C684   1.205       .  T
C689        C697   1.436       .  S
C689        C690   1.401       .  A
C689        C694   1.400       .  A
C690        C691   1.400       .  A
C690        H699   1.084       .  S
C691        C692   1.401       .  A
C691        H700   1.083       .  S
C692        C695   1.437       .  S
C692        C693   1.401       .  A
C693        C694   1.396       .  A
C693        H701   1.084       .  S
C694        H702   1.084       .  S
C695        C696   1.204       .  T
C697        C698   1.205       .  T
C703        C711   1.440       .  S
C703        C704   1.402       .  A
C703        C708   1.401       .  A
C704        C705   1.401       .  A
C704        H713   1.083       .  S
C705        C706   1.402       .  A
C705        H714   1.083       .  S
C706        C709   1.442       .  S
C706        C707   1.401       .  A
C707        C708   1.398       .  A
C707        H715   1.083       .  S
C708        H716   1.084       .  S
C709        C710   1.207       .  T
C711        C712   1.207       .  T
C717        C725   1.442       .  S
C717        C718   1.401       .  A
C717        C722   1.402       .  A
C718        C719   1.399       .  A
C718        H727   1.083       .  S
C719        C720   1.401       .  A
C719        H728   1.084       .  S
C720        C723   1.441       .  S
C720        C721   1.402       .  A
C721        C722   1.401       .  A
C721        H729   1.083       .  S
C722        H730   1.083       .  S
C723        C724   1.207       .  T
C725        C726   1.207       .  T
C731        C739   1.437       .  S
C731        C732   1.401       .  A
C731        C736   1.401       .  A
C732        C733   1.398       .  A
C732        H741   1.084       .  S
C733        C734   1.401       .  A
C733        H742   1.083       .  S
C734        C737   1.438       .  S
C734        C735   1.401       .  A
C735        C736   1.398       .  A
C735        H743   1.084       .  S
C736        H744   1.084       .  S
C737        C738   1.205       .  T
C739        C740   1.205       .  T
C745        C753   1.438       .  S
C745        C746   1.401       .  A
C745        C750   1.401       .  A
C746        C747   1.398       .  A
C746        H755   1.083       .  S
C747        C748   1.401       .  A
C747        H756   1.084       .  S
C748        C751   1.439       .  S
C748        C749   1.401       .  A
C749        C750   1.399       .  A
C749        H757   1.083       .  S
C750        H758   1.084       .  S
C751        C752   1.205       .  T
C753        C754   1.206       .  T
C759        C767   1.442       .  S
C759        C760   1.401       .  A
C759        C764   1.402       .  A
C760        C761   1.398       .  A
C760        H769   1.084       .  S
C761        C762   1.401       .  A
C761        H770   1.084       .  S
C762        C765   1.440       .  S
C762        C763   1.402       .  A
C763        C764   1.401       .  A
C763        H771   1.083       .  S
C764        H772   1.083       .  S
C765        C766   1.207       .  T
C767        C768   1.207       .  T
C773        C781   1.439       .  S
C773        C774   1.401       .  A
C773        C778   1.401       .  A
C774        C775   1.399       .  A
C774        H783   1.083       .  S
C775        C776   1.401       .  A
C775        H784   1.084       .  S
C776        C779   1.438       .  S
C776        C777   1.401       .  A
C777        C778   1.398       .  A
C777        H785   1.084       .  S
C778        H786   1.084       .  S
C779        C780   1.205       .  T
C781        C782   1.205       .  T
C787        C795   1.441       .  S
C787        C788   1.402       .  A
C787        C792   1.401       .  A
C788        C789   1.400       .  A
C788        H797   1.083       .  S
C789        C790   1.402       .  A
C789        H798   1.083       .  S
C790        C793   1.440       .  S
C790        C791   1.401       .  A
C791        C792   1.398       .  A
C791        H799   1.084       .  S
C792        H800   1.084       .  S
C793        C794   1.207       .  T
C795        C796   1.206       .  T
C801        C809   1.437       .  S
C801        C802   1.401       .  A
C801        C806   1.401       .  A
C802        C803   1.399       .  A
C802        H811   1.084       .  S
C803        C804   1.401       .  A
C803        H812   1.083       .  S
C804        C807   1.438       .  S
C804        C805   1.401       .  A
C805        C806   1.398       .  A
C805        H813   1.084       .  S
C806        H814   1.084       .  S
C807        C808   1.205       .  T
C809        C810   1.205       .  T
C815        C823   1.439       .  S
C815        C816   1.402       .  A
C815        C820   1.401       .  A
C816        C817   1.399       .  A
C816        H825   1.083       .  S
C817        C818   1.401       .  A
C817        H826   1.083       .  S
C818        C821   1.438       .  S
C818        C819   1.401       .  A
C819        C820   1.398       .  A
C819        H827   1.084       .  S
C820        H828   1.084       .  S
C821        C822   1.206       .  T
C823        C824   1.206       .  T
C829        C837   1.438       .  S
C829        C830   1.401       .  A
C829        C834   1.401       .  A
C830        C831   1.397       .  A
C830        H839   1.084       .  S
C831        C832   1.400       .  A
C831        H840   1.083       .  S
C832        C835   1.439       .  S
C832        C833   1.402       .  A
C833        C834   1.400       .  A
C833        H841   1.083       .  S
C834        H842   1.083       .  S
C835        C836   1.205       .  T
C837        C838   1.206       .  T
C843        C851   1.438       .  S
C843        C844   1.401       .  A
C843        C848   1.401       .  A
C844        C845   1.400       .  A
C844        H853   1.083       .  S
C845        C846   1.402       .  A
C845        H854   1.083       .  S
C846        C849   1.440       .  S
C846        C847   1.401       .  A
C847        C848   1.398       .  A
C847        H855   1.083       .  S
C848        H856   1.084       .  S
C849        C850   1.206       .  T
C851        C852   1.206       .  T
