geometry optimzed in LAMMPS
_audit_creation_date              2020-12-01 
_audit_creation_method            'lammps2cif' 
_symmetry_space_group_name_H-M    'P1' 
_symmetry_Int_Tables_number       1 
_symmetry_cell_setting            triclinic 
loop_ 
_symmetry_equiv_pos_as_xyz 
  x,y,z 
_cell_length_a                    27.75106486 
_cell_length_b                    30.41899672725696 
_cell_length_c                    26.95620028233999 
_cell_angle_alpha                 90.17958587396568 
_cell_angle_beta                  90.15027277515783 
_cell_angle_gamma                 89.71315194017228 
loop_ 
_atom_site_label 
_atom_site_type_symbol 
_atom_site_fract_x 
_atom_site_fract_y 
_atom_site_fract_z 
_atom_site_charge 
C1          C  0.39494072  0.39151610  0.08919394     0.42000
N2          N  0.43862464  0.44896467  0.07970669     0.00900
C3          C  0.44438743  0.08479883  0.37430227    -0.07000
H4          H  0.48089133  0.41821535  0.33732540     0.06400
C5          C  0.12951362  0.42985786  0.44726004    -0.07300
Co6        Co  0.41210251  0.99878230  0.48892835     0.74200
N7          N  0.45961204  0.45589941  0.40183998    -0.26500
Co8        Co  0.01010186  0.50568604  0.40935280     0.74100
C9          C  0.11934643  0.41094337  0.39870361     0.42100
N10         N  0.08132319  0.45509089  0.06221859     0.00500
N11         N  0.06590582  0.45983762  0.41499790     0.00600
N12         N  0.38269248  0.07898954  0.42864937    -0.47300
H13         H  0.35308058  0.40608541  0.01673392     0.06400
N14         N  0.42256288  0.45290812  0.43222223     0.00900
N15         N  0.06223499  0.05572642  0.41835478     0.00700
C16         C  0.11576367  0.10428562  0.40229523     0.42300
N17         N  0.04370016  0.45220469  0.09170670    -0.25900
C18         C  0.36976417  0.07488069  0.05465650    -0.06900
N19         N  0.43045588  0.41561241  0.10991661    -0.47100
N20         N  0.07630188  0.08402808  0.38398308    -0.47300
C21         C  0.38162417  0.09409344  0.10291452     0.42000
N22         N  0.41645911  0.04907238  0.43711284     0.00900
N23         N  0.03997306  0.04822578  0.09895165    -0.26000
N24         N  0.40985294  0.44897925  0.04080477    -0.26500
N25         N  0.07704472  0.05091341  0.06870898     0.00500
H26         H  0.01803626  0.08536059  0.16295583     0.06400
H27         H  0.15643126  0.09053569  0.47506240     0.06500
N28         N  0.45304720  0.05165537  0.40595546    -0.26500
N29         N  0.09495504  0.46008267  0.45381543    -0.26100
N30         N  0.43375289  0.04432794  0.08530563     0.00900
C31         C  0.41326388  0.39896320  0.38138569     0.42300
C32         C  0.04800502  0.41558496  0.11889899    -0.07400
N33         N  0.09107156  0.05542958  0.45755835    -0.26100
H34         H  0.15878218  0.42321535  0.47273594     0.06500
N35         N  0.39346092  0.42000534  0.42058248    -0.47300
H36         H  0.02313705  0.40481494  0.14707001     0.06400
C37         C  0.08871081  0.10308903  0.12192844     0.42100
C38         C  0.38097221  0.41400206  0.04332377    -0.06900
Co39       Co  0.48922559  0.99824556  0.09018043     0.73800
N40         N  0.11225615  0.42228180  0.06850886    -0.47100
C41         C  0.39806133  0.10313276  0.39010337     0.42400
N42         N  0.42160153  0.07350380  0.11966020    -0.47100
Co43       Co  0.08693968  0.50614720  0.01117305     0.73900
C44         C  0.12561781  0.08559091  0.45106285    -0.07400
C45         C  0.45648746  0.42348495  0.36801345    -0.06900
N46         N  0.40407731  0.04432698  0.04692664    -0.26500
N47         N  0.07922305  0.43079268  0.38097004    -0.47200
H48         H  0.46696705  0.09408914  0.34345265     0.06400
C49         C  0.04377169  0.07993383  0.13362234    -0.07400
Cl50       Cl  0.99963238  0.00251729  0.99973216    -0.50400
C51         C  0.09288712  0.39517137  0.10261486     0.42200
H52         H  0.33964286  0.08180291  0.03032217     0.06400
N53         N  0.10684319  0.08290799  0.08114460    -0.47100
C54         C  0.22459087  0.23218813  0.28368337    -0.02900
C55         C  0.22678720  0.28350551  0.27991860    -0.02900
C56         C  0.21816501  0.28106075  0.22255410    -0.02900
C57         C  0.21744407  0.22893381  0.22513170    -0.02900
C58         C  0.28048157  0.23043934  0.27749304    -0.02900
C59         C  0.27407077  0.22600731  0.21980391    -0.02900
C60         C  0.27444793  0.27778902  0.21309515    -0.02900
C61         C  0.28324315  0.28228867  0.27087997    -0.02900
C62         C  0.20059757  0.19958142  0.32125601    -0.06600
C63         C  0.20029922  0.15472706  0.30710710    -0.17700
C64         C  0.17360424  0.12286984  0.33256971     0.10600
C65         C  0.14661545  0.13512752  0.37455211    -0.06500
C66         C  0.15025882  0.17792166  0.39218428    -0.17700
C67         C  0.17744194  0.20989116  0.36754353     0.10700
S68         S  0.17524034  0.06726256  0.30930029    -0.32700
S69         S  0.18619712  0.25875914  0.40376185    -0.32700
H70         H  0.13899495  0.26093872  0.42266052     0.28700
H71         H  0.16940776  0.04672855  0.35554449     0.28700
H72         H  0.21837501  0.14466893  0.27349715     0.19300
H73         H  0.13234786  0.18613411  0.42672028     0.19300
C74         C  0.12192981  0.36505003  0.13299305    -0.06600
C75         C  0.15824537  0.38394603  0.16115848    -0.17700
C76         C  0.18273145  0.36009070  0.19763008     0.10600
C77         C  0.17914977  0.31301748  0.19897453    -0.06500
C78         C  0.13905353  0.29538977  0.17296058    -0.17700
C79         C  0.11033772  0.32069379  0.14082533     0.10700
S80         S  0.19662994  0.39383840  0.25032790    -0.32700
S81         S  0.06042638  0.29383146  0.11040411    -0.32700
H82         H  0.05354984  0.32438918  0.07207237     0.28700
H83         H  0.20779811  0.43269405  0.22462106     0.28700
H84         H  0.16282540  0.41926430  0.15889032     0.19300
H85         H  0.12917165  0.26173654  0.17664352     0.19300
C86         C  0.35399981  0.12655684  0.13228250    -0.06600
C87         C  0.37915180  0.16044122  0.15573213    -0.17700
C88         C  0.35585021  0.19060774  0.18729004     0.10600
C89         C  0.30448624  0.19087355  0.19075366    -0.06500
C90         C  0.28138773  0.15285584  0.17228251    -0.17700
C91         C  0.30477499  0.12156181  0.14278572     0.10700
S92         S  0.39402997  0.21593551  0.23302908    -0.32700
S93         S  0.27025598  0.07440521  0.12339872    -0.32700
H94         H  0.30812809  0.04382553  0.12818982     0.28700
H95         H  0.43690209  0.21497475  0.20529228     0.28700
H96         H  0.41801854  0.16110451  0.15220204     0.19300
H97         H  0.24566305  0.14488380  0.18408567     0.19300
C98         C  0.11470223  0.13957439  0.14797061    -0.06600
C99         C  0.14926751  0.16182941  0.12034246    -0.17700
C100        C  0.18251380  0.19084637  0.14157143     0.10600
C101        C  0.18094658  0.20001829  0.19437337    -0.06500
C102        C  0.14112211  0.18203335  0.21970454    -0.17700
C103        C  0.10946048  0.15117813  0.19838840     0.10700
S104        S  0.22657142  0.20709199  0.09560134    -0.32700
S105        S  0.06446578  0.12628907  0.23744142    -0.32700
H106        H  0.07286321  0.15134728  0.28052748     0.28700
H107        H  0.25936231  0.22919063  0.12504207     0.28700
H108        H  0.15211288  0.15463644  0.08100172     0.19300
H109        H  0.13438538  0.19165229  0.25720269     0.19300
C110        C  0.32308452  0.31395578  0.29230432    -0.06600
C111        C  0.36199943  0.29659228  0.31991080    -0.17700
C112        C  0.39305892  0.32319083  0.34814317     0.10600
C113        C  0.38591256  0.36892468  0.34883281    -0.06500
C114        C  0.35266580  0.38714024  0.31606738    -0.17700
C115        C  0.32456489  0.36058855  0.28478765     0.10700
S116        S  0.44046137  0.29690871  0.38312514    -0.32700
S117        S  0.30348729  0.38708938  0.22944652    -0.32700
H118        H  0.30727248  0.43099287  0.24545219     0.28700
H119        H  0.47392398  0.33110566  0.37769215     0.28700
H120        H  0.36929676  0.26205387  0.31935873     0.19300
H121        H  0.35112768  0.42260997  0.31290778     0.19300
C122        C  0.36679090  0.13408671  0.36315033    -0.06600
C123        C  0.35276302  0.17317535  0.38628705    -0.17700
C124        C  0.32263661  0.20381740  0.36237924     0.10600
C125        C  0.30853606  0.19696748  0.31160078    -0.06500
C126        C  0.31712336  0.15408748  0.29326075    -0.17700
C127        C  0.34670909  0.12354694  0.31697771     0.10700
S128        S  0.30455951  0.24890832  0.40145716    -0.32200
S129        S  0.35542211  0.07094809  0.28698801    -0.32700
H130        H  0.35695962  0.04598938  0.33076555     0.28700
H131        H  0.27574312  0.26878565  0.36625495     0.28700
H132        H  0.36514390  0.17973093  0.42377446     0.19300
H133        H  0.29890747  0.14219185  0.26120911     0.19300
C134        C  0.14762664  0.37792773  0.37112665    -0.06600
C135        C  0.12247197  0.34700020  0.34287812    -0.17700
C136        C  0.14663481  0.31489930  0.31495048     0.10600
C137        C  0.19798170  0.31392306  0.31427704    -0.06500
C138        C  0.22251138  0.34318917  0.34604144    -0.17700
C139        C  0.19840232  0.37597778  0.37256739     0.10700
S140        S  0.11040553  0.27362220  0.28521760    -0.32700
S141        S  0.23535339  0.41681980  0.40253770    -0.32700
H142        H  0.20630104  0.45254837  0.38781920     0.28700
H143        H  0.06659556  0.29708778  0.28548042     0.28700
H144        H  0.08344528  0.34749838  0.34357255     0.19300
H145        H  0.26080340  0.34186049  0.35006991     0.19300
C146        C  0.36755154  0.35677051  0.11525273    -0.06600
C147        C  0.32000371  0.34960237  0.10099653    -0.17700
C148        C  0.28908752  0.32225676  0.12750114     0.10600
C149        C  0.30555516  0.30082001  0.17215443    -0.06500
C150        C  0.35505438  0.30591176  0.18289770    -0.17700
C151        C  0.38600839  0.33289016  0.15561543     0.10700
S152        S  0.23171244  0.31907134  0.09690243    -0.32700
S153        S  0.44821312  0.33782906  0.17489804    -0.32700
H154        H  0.44781783  0.30523293  0.21177201     0.28700
H155        H  0.21475325  0.28519863  0.12417155     0.28700
H156        H  0.30573869  0.36686235  0.06908365     0.19300
H157        H  0.36903012  0.29340109  0.21662876     0.19300
C158        C  0.39543918  0.39085356  0.58996926     0.42000
N159        N  0.43887801  0.44858282  0.58030268     0.00900
C160        C  0.44515092  0.08466678  0.87456686    -0.07000
H161        H  0.48106276  0.41796878  0.83769747     0.06400
C162        C  0.12946875  0.43055068  0.94815244    -0.07300
Co163      Co  0.41253131  0.99879048  0.98905786     0.74200
N164        N  0.45954222  0.45602069  0.90185024    -0.26500
Co165      Co  0.01044354  0.50628999  0.90919280     0.74100
C166        C  0.11958911  0.41154699  0.89959517     0.42100
N167        N  0.08146906  0.45419507  0.56209493     0.00500
N168        N  0.06640217  0.46080173  0.91515033     0.00600
N169        N  0.38363230  0.07920550  0.92911521    -0.47300
H170        H  0.35375964  0.40509295  0.51729866     0.06400
N171        N  0.42225974  0.45337400  0.93194542     0.00900
N172        N  0.06209621  0.05509710  0.91863208     0.00700
C173        C  0.11578274  0.10341756  0.90274134     0.42300
N174        N  0.04407602  0.45155134  0.59192787    -0.25900
C175        C  0.36914369  0.07480442  0.55511229    -0.06900
N176        N  0.43081663  0.41522597  0.61062156    -0.47100
N177        N  0.07635627  0.08325736  0.88422858    -0.47300
C178        C  0.38143185  0.09425491  0.60324103     0.42000
N179        N  0.41718206  0.04905487  0.93739521     0.00900
N180        N  0.03986722  0.04830454  0.59860386    -0.26000
N181        N  0.41017474  0.44841603  0.54134517    -0.26500
N182        N  0.07714356  0.05084215  0.56859534     0.00500
H183        H  0.01800918  0.08510611  0.66287773     0.06400
H184        H  0.15608367  0.08990584  0.97572132     0.06500
N185        N  0.45370249  0.05142682  0.90618695    -0.26500
N186        N  0.09513510  0.46104854  0.95419208    -0.26100
N187        N  0.43350038  0.04449712  0.58514265     0.00900
C188        C  0.41298990  0.39929110  0.88133328     0.42300
C189        C  0.04866341  0.41521660  0.61956614    -0.07400
N190        N  0.09074568  0.05497815  0.95796684    -0.26100
H191        H  0.15836198  0.42372277  0.97400832     0.06500
N192        N  0.39301492  0.42058958  0.92025920    -0.47300
H193        H  0.02412491  0.40477191  0.64819909     0.06400
C194        C  0.08916624  0.10231258  0.62254724     0.42100
C195        C  0.38150832  0.41323789  0.54394893    -0.06900
Co196      Co  0.48896204  0.99844201  0.58993254     0.73800
N197        N  0.11248062  0.42146675  0.56848979    -0.47100
C198        C  0.39895988  0.10333581  0.89056002     0.42400
N199        N  0.42163704  0.07375939  0.61951580    -0.47100
Co200      Co  0.08709575  0.50519365  0.51097603     0.73900
C201        C  0.12534394  0.08501697  0.95161030    -0.07400
C202        C  0.45645527  0.42351058  0.86814885    -0.06900
N203        N  0.40351831  0.04433123  0.54701613    -0.26500
N204        N  0.07977350  0.43155658  0.88139399    -0.47200
H205        H  0.46774557  0.09388205  0.84370319     0.06400
C206        C  0.04377735  0.07972297  0.63355955    -0.07400
Cl207      Cl  0.99957677  0.00285037  0.49956916    -0.50400
C208        C  0.09337930  0.39465397  0.60302989     0.42200
H209        H  0.33879582  0.08162860  0.53104186     0.06400
N210        N  0.10732569  0.08232934  0.58164407    -0.47100
C211        C  0.22398774  0.23211219  0.78499368    -0.02900
C212        C  0.22653233  0.28346080  0.78106832    -0.02900
C213        C  0.21794437  0.28087256  0.72369009    -0.02900
C214        C  0.21694845  0.22873311  0.72641715    -0.02900
C215        C  0.27989661  0.23012582  0.77883288    -0.02900
C216        C  0.27362241  0.22560438  0.72115794    -0.02900
C217        C  0.27426368  0.27734936  0.71424406    -0.02900
C218        C  0.28295557  0.28194733  0.77202649    -0.02900
C219        C  0.19991184  0.19936823  0.82245406    -0.06600
C220        C  0.19992229  0.15455790  0.80802651    -0.17700
C221        C  0.17367136  0.12236576  0.83336334     0.10600
C222        C  0.14669647  0.13431625  0.87540140    -0.06500
C223        C  0.15015803  0.17694834  0.89348016    -0.17700
C224        C  0.17718243  0.20929375  0.86917167     0.10700
S225        S  0.17579500  0.06682902  0.80976438    -0.32700
S226        S  0.18498544  0.25910016  0.90441149    -0.32700
H227        H  0.15630504  0.24976121  0.94594480     0.28700
H228        H  0.16806631  0.04581622  0.85541714     0.28700
H229        H  0.21797227  0.14476719  0.77430699     0.19300
H230        H  0.13140665  0.18463598  0.92762081     0.19300
C231        C  0.12257416  0.36458120  0.63325419    -0.06600
C232        C  0.15889734  0.38350284  0.66136728    -0.17700
C233        C  0.18279421  0.35987129  0.69839238     0.10600
C234        C  0.17901708  0.31281885  0.70001608    -0.06500
C235        C  0.13909605  0.29511207  0.67379016    -0.17700
C236        C  0.11087421  0.32028392  0.64112384     0.10700
S237        S  0.19478283  0.39395233  0.75141444    -0.32700
S238        S  0.06172649  0.29334846  0.60955483    -0.32700
H239        H  0.05814920  0.32256302  0.56943928     0.28700
H240        H  0.20620875  0.43288970  0.72599493     0.28700
H241        H  0.16362603  0.41878858  0.65883864     0.19300
H242        H  0.12912388  0.26148584  0.67753984     0.19300
C243        C  0.35390917  0.12652745  0.63318780    -0.06600
C244        C  0.37918080  0.15962962  0.65802973    -0.17700
C245        C  0.35571644  0.18986189  0.68946978     0.10600
C246        C  0.30426961  0.19050295  0.69221589    -0.06500
C247        C  0.28117189  0.15279954  0.67304025    -0.17700
C248        C  0.30448847  0.12192139  0.64294665     0.10700
S249        S  0.39365569  0.21504279  0.73557713    -0.32700
S250        S  0.26966508  0.07542653  0.62224760    -0.32700
H251        H  0.30678840  0.04436012  0.62898030     0.28700
H252        H  0.43606697  0.21570018  0.70711798     0.28700
H253        H  0.41813058  0.15981644  0.65540441     0.19300
H254        H  0.24543570  0.14472412  0.68466578     0.19300
C255        C  0.11521175  0.13845638  0.64905080    -0.06600
C256        C  0.14981313  0.16076126  0.62165006    -0.17700
C257        C  0.18238329  0.19033006  0.64287637     0.10600
C258        C  0.18051921  0.19966722  0.69564197    -0.06500
C259        C  0.14067661  0.18143852  0.72083942    -0.17700
C260        C  0.10966726  0.14997575  0.69946948     0.10700
S261        S  0.22591660  0.20717940  0.59671319    -0.32700
S262        S  0.06528557  0.12401474  0.73839226    -0.32700
H263        H  0.07639885  0.14602573  0.78289721     0.28700
H264        H  0.25927249  0.22849242  0.62620049     0.28700
H265        H  0.15302185  0.15341956  0.58237465     0.19300
H266        H  0.13344730  0.19135418  0.75820163     0.19300
C267        C  0.32277826  0.31367025  0.79320952    -0.06600
C268        C  0.36155524  0.29642208  0.82104878    -0.17700
C269        C  0.39276918  0.32311116  0.84896429     0.10600
C270        C  0.38591199  0.36892760  0.84895263    -0.06500
C271        C  0.35291142  0.38693740  0.81577601    -0.17700
C272        C  0.32447171  0.36019997  0.78503946     0.10700
S273        S  0.43972192  0.29648202  0.88439071    -0.32700
S274        S  0.30162832  0.38633878  0.73019707    -0.32700
H275        H  0.31194482  0.43027984  0.74240223     0.28700
H276        H  0.47125942  0.33240953  0.88654166     0.28700
H277        H  0.36857662  0.26184506  0.82100719     0.19300
H278        H  0.35137266  0.42238441  0.81233254     0.19300
C279        C  0.36741621  0.13426762  0.86375090    -0.06600
C280        C  0.35256639  0.17296395  0.88732025    -0.17700
C281        C  0.32201652  0.20344078  0.86362764     0.10600
C282        C  0.30788586  0.19660492  0.81289791    -0.06500
C283        C  0.31677767  0.15382817  0.79439481    -0.17700
C284        C  0.34727384  0.12371268  0.81760038     0.10700
S285        S  0.30369364  0.24850728  0.90267106    -0.32200
S286        S  0.35701293  0.07154798  0.78702631    -0.32700
H287        H  0.35801085  0.04624745  0.83056981     0.28700
H288        H  0.27490067  0.26842012  0.86745175     0.28700
H289        H  0.36478979  0.17942371  0.92487594     0.19300
H290        H  0.29844429  0.14180847  0.76246459     0.19300
C291        C  0.14787893  0.37838771  0.87231161    -0.06600
C292        C  0.12265382  0.34762051  0.84392844    -0.17700
C293        C  0.14670412  0.31552465  0.81593010     0.10600
C294        C  0.19803535  0.31427629  0.81533471    -0.06500
C295        C  0.22269599  0.34351123  0.84713120    -0.17700
C296        C  0.19865396  0.37625977  0.87389688     0.10700
S297        S  0.11024413  0.27458893  0.78593664    -0.32700
S298        S  0.23565466  0.41646992  0.90496813    -0.32700
H299        H  0.20681062  0.45264519  0.89124624     0.28700
H300        H  0.06756334  0.29967692  0.78349774     0.28700
H301        H  0.08361851  0.34820736  0.84453658     0.19300
H302        H  0.26098625  0.34201913  0.85123057     0.19300
C303        C  0.36814007  0.35586051  0.61607825    -0.06600
C304        C  0.32086095  0.34800162  0.60128588    -0.17700
C305        C  0.28971148  0.32102464  0.62808029     0.10600
C306        C  0.30577422  0.30012079  0.67322834    -0.06500
C307        C  0.35522526  0.30540064  0.68422644    -0.17700
C308        C  0.38626468  0.33250510  0.65703695     0.10700
S309        S  0.23240051  0.31776802  0.59742261    -0.32700
S310        S  0.44839381  0.33768023  0.67653492    -0.32700
H311        H  0.44544377  0.31249935  0.72009331     0.28700
H312        H  0.21520943  0.28495351  0.62601483     0.28700
H313        H  0.30688366  0.36463380  0.56882701     0.19300
H314        H  0.36911209  0.29256921  0.71783347     0.19300
C315        C  0.39529815  0.89100080  0.08889048     0.42000
N316        N  0.43896363  0.94852745  0.07979039     0.00900
C317        C  0.44521186  0.58554395  0.37558241    -0.07000
H318        H  0.48088971  0.91732445  0.33765320     0.06400
C319        C  0.12972031  0.93067623  0.44701538    -0.07300
Co320      Co  0.41227537  0.49869135  0.48925905     0.74200
N321        N  0.45940627  0.95564722  0.40162490    -0.26500
Co322      Co  0.01031406  0.00642584  0.40909263     0.74100
C323        C  0.12000683  0.91222952  0.39812857     0.42100
N324        N  0.08129675  0.95458543  0.06231784     0.00500
N325        N  0.06629956  0.96080992  0.41458284     0.00600
N326        N  0.38304320  0.57917354  0.42923520    -0.47300
H327        H  0.35370778  0.90567217  0.01634970     0.06400
N328        N  0.42235769  0.95285466  0.43201436     0.00900
N329        N  0.06223131  0.55502036  0.41834957     0.00700
C330        C  0.11527841  0.60422917  0.40270825     0.42300
N331        N  0.04386985  0.95189460  0.09209010    -0.25900
C332        C  0.36892532  0.57477100  0.05481390    -0.06900
N333        N  0.43073112  0.91507637  0.10984661    -0.47100
N334        N  0.07609436  0.58360496  0.38414772    -0.47300
C335        C  0.38096474  0.59398898  0.10301669     0.42000
N336        N  0.41665663  0.54906730  0.43752753     0.00900
N337        N  0.04023881  0.54873898  0.09887319    -0.26000
N338        N  0.41026398  0.94863874  0.04084243    -0.26500
N339        N  0.07736377  0.55137871  0.06867975     0.00500
H340        H  0.01862506  0.58583193  0.16305670     0.06400
H341        H  0.15581220  0.59058903  0.47555446     0.06500
N342        N  0.45345292  0.55194306  0.40670134    -0.26500
N343        N  0.09505908  0.96077602  0.45362782    -0.26100
N344        N  0.43331054  0.54464234  0.08507249     0.00900
C345        C  0.41342191  0.89823739  0.38202271     0.42300
C346        C  0.04853291  0.91561486  0.11979982    -0.07400
N347        N  0.09099800  0.55486844  0.45759951    -0.26100
H348        H  0.15877876  0.92385952  0.47267998     0.06500
N349        N  0.39347329  0.91965813  0.42087678    -0.47300
H350        H  0.02397799  0.90512455  0.14839536     0.06400
C351        C  0.08951656  0.60319692  0.12221572     0.42100
C352        C  0.38146944  0.91358956  0.04308245    -0.06900
Co353      Co  0.48874526  0.49879249  0.09011732     0.73800
N354        N  0.11238059  0.92192910  0.06875849    -0.47100
C355        C  0.39881158  0.60379138  0.39122758     0.42400
N356        N  0.42116539  0.57368532  0.11950281    -0.47100
Co357      Co  0.08685745  0.00552254  0.01123400     0.73900
C358        C  0.12518959  0.58538671  0.45136924    -0.07400
C359        C  0.45642580  0.92287689  0.36823166    -0.06900
N360        N  0.40346199  0.54448984  0.04685216    -0.26500
N361        N  0.07994848  0.93212654  0.38031237    -0.47200
H362        H  0.46811307  0.59518759  0.34513086     0.06400
C363        C  0.04428960  0.58034573  0.13366805    -0.07400
Cl364      Cl  0.99965591  0.50304235  0.99967751    -0.50400
C365        C  0.09330228  0.89512541  0.10331680     0.42200
H366        H  0.33861571  0.58151698  0.03065965     0.06400
N367        N  0.10747855  0.58306732  0.08134091    -0.47100
C368        C  0.22481098  0.73226374  0.28445383    -0.02900
C369        C  0.22704753  0.78357270  0.28055763    -0.02900
C370        C  0.21838205  0.78109502  0.22320275    -0.02900
C371        C  0.21769585  0.72900175  0.22587380    -0.02900
C372        C  0.28071458  0.73043228  0.27806856    -0.02900
C373        C  0.27430828  0.72603394  0.22038991    -0.02900
C374        C  0.27457965  0.77782781  0.21356261    -0.02900
C375        C  0.28347122  0.78224357  0.27136444    -0.02900
C376        C  0.20070560  0.69969488  0.32217873    -0.06600
C377        C  0.20015869  0.65488754  0.30784927    -0.17700
C378        C  0.17307362  0.62310802  0.33303837     0.10600
C379        C  0.14633377  0.63519728  0.37520841    -0.06500
C380        C  0.15070113  0.67776754  0.39339148    -0.17700
C381        C  0.17839167  0.70970114  0.36911088     0.10700
S382        S  0.17353427  0.56775755  0.30913813    -0.32700
S383        S  0.18609056  0.75940933  0.40440212    -0.32700
H384        H  0.17735799  0.74214935  0.45191345     0.28700
H385        H  0.17126694  0.54729334  0.35579489     0.28700
H386        H  0.21833135  0.64484586  0.27427150     0.19300
H387        H  0.13188159  0.68609445  0.42735561     0.19300
C388        C  0.12246133  0.86493749  0.13342397    -0.06600
C389        C  0.15931862  0.88370386  0.16094693    -0.17700
C390        C  0.18324460  0.86009636  0.19796690     0.10600
C391        C  0.17938770  0.81304510  0.19964738    -0.06500
C392        C  0.13914282  0.79543493  0.17386063    -0.17700
C393        C  0.11041663  0.82076048  0.14177968     0.10700
S394        S  0.19465889  0.89419798  0.25110950    -0.32700
S395        S  0.05994161  0.79417653  0.11203888    -0.32700
H396        H  0.05334242  0.82439438  0.07331065     0.28700
H397        H  0.20603309  0.93323800  0.22587553     0.28700
H398        H  0.16434228  0.91893975  0.15817343     0.19300
H399        H  0.12912227  0.76182377  0.17775203     0.19300
C400        C  0.35361651  0.62641791  0.13253445    -0.06600
C401        C  0.37908071  0.65997027  0.15616556    -0.17700
C402        C  0.35603013  0.69039409  0.18756958     0.10600
C403        C  0.30463862  0.69080013  0.19131121    -0.06500
C404        C  0.28136764  0.65280271  0.17299039    -0.17700
C405        C  0.30442371  0.62162826  0.14308703     0.10700
S406        S  0.39473871  0.71638232  0.23232782    -0.32700
S407        S  0.26964822  0.57477777  0.12329898    -0.32700
H408        H  0.30713650  0.54394306  0.12921688     0.28700
H409        H  0.43732031  0.71509159  0.20409575     0.28700
H410        H  0.41795654  0.66035475  0.15260659     0.19300
H411        H  0.24576333  0.64478317  0.18512186     0.19300
C412        C  0.11576984  0.63944638  0.14844450    -0.06600
C413        C  0.15052260  0.66164784  0.12096330    -0.17700
C414        C  0.18333275  0.69102499  0.14225292     0.10600
C415        C  0.18140119  0.70022684  0.19499293    -0.06500
C416        C  0.14162528  0.68216072  0.22020475    -0.17700
C417        C  0.11038863  0.65100052  0.19887422     0.10700
S418        S  0.22740066  0.70778884  0.09653301    -0.32700
S419        S  0.06576236  0.62565321  0.23795528    -0.32700
H420        H  0.07797600  0.64678637  0.28270628     0.28700
H421        H  0.25966692  0.73027499  0.12618045     0.28700
H422        H  0.15371988  0.65431521  0.08169089     0.19300
H423        H  0.13458086  0.69201956  0.25758775     0.19300
C424        C  0.32341359  0.81355637  0.29277086    -0.06600
C425        C  0.36260864  0.79597631  0.31970916    -0.17700
C426        C  0.39356116  0.82226907  0.34840054     0.10600
C427        C  0.38616818  0.86805910  0.34963630    -0.06500
C428        C  0.35285143  0.88645358  0.31703190    -0.17700
C429        C  0.32482460  0.86009937  0.28556134     0.10700
S430        S  0.44052585  0.79492118  0.38320899    -0.32700
S431        S  0.30176473  0.88675030  0.23119816    -0.32700
H432        H  0.31974406  0.92924445  0.23976420     0.28700
H433        H  0.46985176  0.83167733  0.39155502     0.28700
H434        H  0.36996136  0.76146001  0.31863061     0.19300
H435        H  0.35065763  0.92194584  0.31458296     0.19300
C436        C  0.36763717  0.63466330  0.36402262    -0.06600
C437        C  0.35306047  0.67360599  0.38713610    -0.17700
C438        C  0.32297007  0.70414552  0.36299253     0.10600
C439        C  0.30898748  0.69712015  0.31220306    -0.06500
C440        C  0.31814904  0.65434570  0.29384750    -0.17700
C441        C  0.34825230  0.62416668  0.31750617     0.10700
S442        S  0.30498279  0.74954366  0.40167509    -0.32200
S443        S  0.35882011  0.57216461  0.28676466    -0.32700
H444        H  0.36071935  0.54658885  0.33006502     0.28700
H445        H  0.27539699  0.76863733  0.36663516     0.28700
H446        H  0.36512108  0.68020461  0.42472491     0.19300
H447        H  0.30002880  0.64223927  0.26182037     0.19300
C448        C  0.14815882  0.87896063  0.37079873    -0.06600
C449        C  0.12289635  0.84833331  0.34223586    -0.17700
C450        C  0.14690243  0.81545935  0.31528860     0.10600
C451        C  0.19827792  0.81424383  0.31471162    -0.06500
C452        C  0.22287979  0.84340849  0.34654372    -0.17700
C453        C  0.19887664  0.87630470  0.37303726     0.10700
S454        S  0.11053621  0.77415778  0.28567166    -0.32700
S455        S  0.23597200  0.91636684  0.40413136    -0.32700
H456        H  0.20809352  0.95261725  0.38865670     0.28700
H457        H  0.06577743  0.78637841  0.30597785     0.28700
H458        H  0.08390295  0.84987302  0.34170071     0.19300
H459        H  0.26113081  0.84170728  0.35089146     0.19300
C460        C  0.36763671  0.85642324  0.11489936    -0.06600
C461        C  0.31994165  0.84963496  0.10090888    -0.17700
C462        C  0.28890177  0.82248316  0.12759755     0.10600
C463        C  0.30537474  0.80111886  0.17240650    -0.06500
C464        C  0.35486844  0.80617583  0.18299594    -0.17700
C465        C  0.38601106  0.83256663  0.15526222     0.10700
S466        S  0.23160972  0.81933024  0.09671831    -0.32700
S467        S  0.44870391  0.83615089  0.17326968    -0.32700
H468        H  0.44626309  0.81003910  0.21614751     0.28700
H469        H  0.21410577  0.78586566  0.12422427     0.28700
H470        H  0.30575272  0.86693682  0.06897486     0.19300
H471        H  0.36885879  0.79362524  0.21666269     0.19300
C472        C  0.39623632  0.89027962  0.58833772     0.42000
N473        N  0.43894818  0.94850860  0.57959798     0.00900
C474        C  0.44520360  0.58552514  0.87516818    -0.07000
H475        H  0.48221252  0.91593452  0.83920699     0.06400
C476        C  0.13033436  0.93080979  0.94733261    -0.07300
Co477      Co  0.41210378  0.49914304  0.98897353     0.74200
N478        N  0.45998617  0.95510597  0.90224632    -0.26500
Co479      Co  0.01035505  0.00570594  0.90929660     0.74100
C480        C  0.12069006  0.91221558  0.89849006     0.42100
N481        N  0.08099725  0.95460474  0.56209222     0.00500
N482        N  0.06644925  0.96027722  0.91506343     0.00600
N483        N  0.38328689  0.57959877  0.92919551    -0.47300
H484        H  0.35460332  0.90471148  0.51576575     0.06400
N485        N  0.42260950  0.95272102  0.93222316     0.00900
N486        N  0.06204884  0.55584348  0.91851132     0.00700
C487        C  0.11494650  0.60504878  0.90286010     0.42300
N488        N  0.04358597  0.95209645  0.59192999    -0.25900
C489        C  0.36989248  0.57520256  0.55449425    -0.06900
N490        N  0.43126227  0.91476561  0.60943056    -0.47100
N491        N  0.07588140  0.58435038  0.88426260    -0.47300
C492        C  0.38214655  0.59491373  0.60241388     0.42000
N493        N  0.41686883  0.54949105  0.93748969     0.00900
N494        N  0.04068853  0.54791676  0.59890641    -0.26000
N495        N  0.41028418  0.94844867  0.54063528    -0.26500
N496        N  0.07779114  0.55047515  0.56865861     0.00500
H497        H  0.01909727  0.58493913  0.66309014     0.06400
H498        H  0.15534220  0.59178004  0.97588761     0.06500
N499        N  0.45358177  0.55209200  0.90651780    -0.26500
N500        N  0.09530318  0.96055313  0.95403442    -0.26100
N501        N  0.43376934  0.54458550  0.58524103     0.00900
C502        C  0.41395651  0.89763077  0.88272694     0.42300
C503        C  0.04821338  0.91599750  0.61995343    -0.07400
N504        N  0.09069954  0.55584650  0.95784754    -0.26100
H505        H  0.15959605  0.92436560  0.97287520     0.06500
N506        N  0.39365697  0.91957378  0.92105092    -0.47300
H507        H  0.02366455  0.90575914  0.64868607     0.06400
C508        C  0.08998261  0.60227129  0.62224475     0.42100
C509        C  0.38211898  0.91294820  0.54263619    -0.06900
Co510      Co  0.48915079  0.49848002  0.59026638     0.73800
N511        N  0.11203208  0.92194117  0.56880957    -0.47100
C512        C  0.39884995  0.60393015  0.89091438     0.42400
N513        N  0.42205084  0.57424590  0.61921535    -0.47100
Co514      Co  0.08686729  0.00567160  0.51093605     0.73900
C515        C  0.12477989  0.58645844  0.95165596    -0.07400
C516        C  0.45734251  0.92192402  0.86932845    -0.06900
N517        N  0.40390813  0.54433806  0.54702356    -0.26500
N518        N  0.08036594  0.93172831  0.88078236    -0.47200
H519        H  0.46794620  0.59495127  0.84450508     0.06400
C520        C  0.04477305  0.57946786  0.63371083    -0.07400
Cl521      Cl  0.99970626  0.50244459  0.49989241    -0.50400
C522        C  0.09293117  0.89534061  0.60358022     0.42200
H523        H  0.33983402  0.58217406  0.53009167     0.06400
N524        N  0.10794369  0.58214396  0.58133201    -0.47100
C525        C  0.22469046  0.73232224  0.78416580    -0.02900
C526        C  0.22708947  0.78361390  0.78034695    -0.02900
C527        C  0.21840864  0.78116299  0.72297864    -0.02900
C528        C  0.21756073  0.72904779  0.72557707    -0.02900
C529        C  0.28056369  0.73035929  0.77781934    -0.02900
C530        C  0.27418362  0.72605495  0.72013487    -0.02900
C531        C  0.27467962  0.77787832  0.71342420    -0.02900
C532        C  0.28351459  0.78224831  0.77120347    -0.02900
C533        C  0.20047077  0.69996778  0.82201847    -0.06600
C534        C  0.20027570  0.65505863  0.80808692    -0.17700
C535        C  0.17315926  0.62332024  0.83330892     0.10600
C536        C  0.14601979  0.63569994  0.87515100    -0.06500
C537        C  0.14988299  0.67841732  0.89289287    -0.17700
C538        C  0.17713263  0.71040605  0.86830658     0.10700
S539        S  0.17439045  0.56778171  0.80969329    -0.32700
S540        S  0.18554415  0.75953176  0.90441104    -0.32700
H541        H  0.14094519  0.75916456  0.92915385     0.28700
H542        H  0.16535192  0.54675217  0.85505745     0.28700
H543        H  0.21881493  0.64488884  0.77475343     0.19300
H544        H  0.13189909  0.68648013  0.92741582     0.19300
C545        C  0.12210498  0.86526346  0.63386003    -0.06600
C546        C  0.15812964  0.88417665  0.66233395    -0.17700
C547        C  0.18294036  0.86014203  0.69839068     0.10600
C548        C  0.17940316  0.81306847  0.69950355    -0.06500
C549        C  0.13943733  0.79541813  0.67328484    -0.17700
C550        C  0.11104696  0.82071673  0.64087675     0.10700
S551        S  0.19842164  0.89368911  0.75073182    -0.32700
S552        S  0.06277405  0.79357587  0.60816105    -0.32700
H553        H  0.06025752  0.82276287  0.56793131     0.28700
H554        H  0.20824366  0.93290227  0.72515283     0.28700
H555        H  0.16252540  0.91951964  0.66029805     0.19300
H556        H  0.12972597  0.76169669  0.67656859     0.19300
C557        C  0.35448643  0.62727208  0.63192425    -0.06600
C558        C  0.37964391  0.66054927  0.65648076    -0.17700
C559        C  0.35612058  0.69076666  0.68780947     0.10600
C560        C  0.30472069  0.69108077  0.69094004    -0.06500
C561        C  0.28171616  0.65325571  0.67188222    -0.17700
C562        C  0.30506513  0.62257176  0.64155717     0.10700
S563        S  0.39415674  0.71641763  0.73339219    -0.32700
S564        S  0.27022212  0.57641896  0.61988631    -0.32700
H565        H  0.30696756  0.54507544  0.62719052     0.28700
H566        H  0.43613999  0.71768831  0.70428555     0.28700
H567        H  0.41858517  0.66090285  0.65371896     0.19300
H568        H  0.24604812  0.64501664  0.68361175     0.19300
C569        C  0.11595679  0.63876089  0.64835806    -0.06600
C570        C  0.15046319  0.66115722  0.62080072    -0.17700
C571        C  0.18302487  0.69083675  0.64198643     0.10600
C572        C  0.18123977  0.70005007  0.69476533    -0.06500
C573        C  0.14152675  0.68184029  0.72002319    -0.17700
C574        C  0.11041553  0.65049281  0.69873052     0.10700
S575        S  0.22665915  0.70798447  0.59603958    -0.32700
S576        S  0.06596860  0.62490255  0.73785150    -0.32700
H577        H  0.07519721  0.64894016  0.78148365     0.28700
H578        H  0.25929335  0.73000822  0.62571628     0.28700
H579        H  0.15366639  0.65375634  0.58154172     0.19300
H580        H  0.13448529  0.69168983  0.75741700     0.19300
C581        C  0.32350830  0.81362791  0.79274869    -0.06600
C582        C  0.36207619  0.79581383  0.82042480    -0.17700
C583        C  0.39329455  0.82193117  0.84897527     0.10600
C584        C  0.38659870  0.86776298  0.84995391    -0.06500
C585        C  0.35379283  0.88640864  0.81701496    -0.17700
C586        C  0.32552735  0.86028640  0.78544789     0.10700
S587        S  0.44003200  0.79458835  0.88392275    -0.32700
S588        S  0.30523844  0.88731950  0.73007313    -0.32700
H589        H  0.30895959  0.93108058  0.74663731     0.28700
H590        H  0.47267583  0.82973840  0.88382335     0.28700
H591        H  0.36893574  0.76122135  0.81980723     0.19300
H592        H  0.35273961  0.92190268  0.81397549     0.19300
C593        C  0.36737873  0.63456723  0.86373350    -0.06600
C594        C  0.35160425  0.67289901  0.88726818    -0.17700
C595        C  0.32163547  0.70342180  0.86300087     0.10600
C596        C  0.30851081  0.69678738  0.81192263    -0.06500
C597        C  0.31836326  0.65421895  0.79319086    -0.17700
C598        C  0.34873728  0.62425319  0.81688292     0.10700
S599        S  0.30331449  0.74860379  0.90177647    -0.32200
S600        S  0.36030942  0.57246281  0.78615397    -0.32700
H601        H  0.35867915  0.54684467  0.82945458     0.28700
H602        H  0.27488551  0.76837486  0.86625918     0.28700
H603        H  0.36294326  0.67919369  0.92515320     0.19300
H604        H  0.30074043  0.64213589  0.76089685     0.19300
C605        C  0.14878766  0.87887835  0.87119629    -0.06600
C606        C  0.12336802  0.84819221  0.84283551    -0.17700
C607        C  0.14721355  0.81559811  0.81532602     0.10600
C608        C  0.19854768  0.81419870  0.81477123    -0.06500
C609        C  0.22332077  0.84320491  0.84668160    -0.17700
C610        C  0.19951154  0.87620238  0.87318311     0.10700
S611        S  0.11076879  0.77429293  0.78575776    -0.32700
S612        S  0.23686167  0.91617690  0.90411812    -0.32700
H613        H  0.20856889  0.95249216  0.88969754     0.28700
H614        H  0.06559358  0.79458387  0.79245103     0.28700
H615        H  0.08436271  0.84932237  0.84314540     0.19300
H616        H  0.26157979  0.84145620  0.85091055     0.19300
C617        C  0.36860912  0.85564815  0.61443042    -0.06600
C618        C  0.32094926  0.84878874  0.60036592    -0.17700
C619        C  0.28964454  0.82216841  0.62741415     0.10600
C620        C  0.30587017  0.80101399  0.67240495    -0.06500
C621        C  0.35545063  0.80593541  0.68302905    -0.17700
C622        C  0.38680489  0.83199883  0.65503786     0.10700
S623        S  0.23204029  0.81984579  0.59713121    -0.32700
S624        S  0.44950485  0.83552092  0.67301184    -0.32700
H625        H  0.44774079  0.80684340  0.71377393     0.28700
H626        H  0.21472591  0.78608291  0.62425524     0.28700
H627        H  0.30689700  0.86582596  0.56820405     0.19300
H628        H  0.36933281  0.79380028  0.71693974     0.19300
C629        C  0.89433950  0.39204628  0.08965437     0.42000
N630        N  0.93847902  0.44922656  0.07989716     0.00900
C631        C  0.94519622  0.08584160  0.37513149    -0.07000
H632        H  0.98026690  0.41734100  0.33782833     0.06400
C633        C  0.62984867  0.43102886  0.44699482    -0.07300
Co634      Co  0.91218160  0.99895019  0.48876528     0.74200
N635        N  0.95913629  0.45549997  0.40203844    -0.26500
Co636      Co  0.51018642  0.50638340  0.40929786     0.74100
C637        C  0.61985393  0.41219828  0.39833468     0.42100
N638        N  0.58117142  0.45521985  0.06249305     0.00500
N639        N  0.56628856  0.46096227  0.41465892     0.00600
N640        N  0.88300472  0.07932777  0.42868840    -0.47300
H641        H  0.85294591  0.40633060  0.01688473     0.06400
N642        N  0.92199454  0.45290271  0.43233534     0.00900
N643        N  0.56163681  0.05571210  0.41791392     0.00700
C644        C  0.61458794  0.10491522  0.40217959     0.42300
N645        N  0.54356760  0.45228955  0.09197446    -0.25900
C646        C  0.87004950  0.07567343  0.05327206    -0.06900
N647        N  0.92990353  0.41612700  0.11039590    -0.47100
N648        N  0.57553815  0.08414953  0.38357843    -0.47300
C649        C  0.88225552  0.09572279  0.10101384     0.42000
N650        N  0.91671522  0.04931833  0.43704975     0.00900
N651        N  0.54032336  0.04781262  0.09912075    -0.26000
N652        N  0.90989887  0.44908689  0.04083851    -0.26500
N653        N  0.57744295  0.05058142  0.06892480     0.00500
H654        H  0.51861863  0.08434449  0.16362174     0.06400
H655        H  0.65488125  0.09174932  0.47526241     0.06500
N656        N  0.95357812  0.05224819  0.40630702    -0.26500
N657        N  0.59521630  0.46117506  0.45355192    -0.26100
N658        N  0.93354744  0.04479811  0.08462193     0.00900
C659        C  0.91234074  0.39882641  0.38177185     0.42300
C660        C  0.54799343  0.41582220  0.11936367    -0.07400
N661        N  0.59024079  0.05578777  0.45730254    -0.26100
H662        H  0.65893296  0.42427610  0.47264836     0.06500
N663        N  0.89259478  0.42017928  0.42079135    -0.47300
H664        H  0.52321540  0.40512734  0.14765472     0.06400
C665        C  0.58948288  0.10197513  0.12293714     0.42100
C666        C  0.88078369  0.41427186  0.04352037    -0.06900
Co667      Co  0.98895916  0.99854244  0.09004901     0.73800
N668        N  0.61220778  0.42253614  0.06887917    -0.47100
C669        C  0.89863096  0.10399196  0.39066759     0.42400
N670        N  0.92189946  0.07484011  0.11822200    -0.47100
Co671      Co  0.58676599  0.50613935  0.01141772     0.73900
C672        C  0.62432660  0.08639237  0.45103343    -0.07400
C673        C  0.95581753  0.42295414  0.36840121    -0.06900
N674        N  0.90385298  0.04450992  0.04627966    -0.26500
N675        N  0.57973280  0.43203015  0.38057190    -0.47200
H676        H  0.96805936  0.09551212  0.34466082     0.06400
C677        C  0.54429188  0.07913353  0.13418897    -0.07400
Cl678      Cl  0.49988591  0.00250522  0.99988840    -0.50400
C679        C  0.59288165  0.39551042  0.10305721     0.42200
H680        H  0.84020641  0.08271449  0.02861334     0.06400
N681        N  0.60755613  0.08212136  0.08193090    -0.47100
C682        C  0.72417569  0.23252669  0.28393570    -0.02900
C683        C  0.72647580  0.28378059  0.27988320    -0.02900
C684        C  0.71773725  0.28112514  0.22256887    -0.02900
C685        C  0.71695614  0.22901911  0.22537713    -0.02900
C686        C  0.78008238  0.23052995  0.27750998    -0.02900
C687        C  0.77363204  0.22598574  0.21984600    -0.02900
C688        C  0.77396814  0.27774569  0.21295483    -0.02900
C689        C  0.78289970  0.28237076  0.27068753    -0.02900
C690        C  0.70004100  0.20021797  0.32177776    -0.06600
C691        C  0.69968362  0.15543308  0.30750430    -0.17700
C692        C  0.67253910  0.12363460  0.33249856     0.10600
C693        C  0.64569513  0.13573764  0.37464088    -0.06500
C694        C  0.64996280  0.17830991  0.39284962    -0.17700
C695        C  0.67756778  0.21028882  0.36862654     0.10700
S696        S  0.67318376  0.06842438  0.30802865    -0.32700
S697        S  0.68475372  0.26005294  0.40398783    -0.32700
H698        H  0.67763493  0.24225628  0.45154541     0.28700
H699        H  0.66589673  0.04711089  0.35356533     0.28700
H700        H  0.71799942  0.14543078  0.27397874     0.19300
H701        H  0.63106088  0.18664270  0.42677016     0.19300
C702        C  0.62188544  0.36531916  0.13321548    -0.06600
C703        C  0.65849089  0.38405477  0.16105372    -0.17700
C704        C  0.68272034  0.36021770  0.19764097     0.10600
C705        C  0.67881350  0.31316139  0.19908531    -0.06500
C706        C  0.63860388  0.29562227  0.17314270    -0.17700
C707        C  0.61001125  0.32106196  0.14104270     0.10700
S708        S  0.69620342  0.39411535  0.25040356    -0.32700
S709        S  0.56014344  0.29457507  0.11014822    -0.32700
H710        H  0.55573898  0.32412754  0.07043009     0.28700
H711        H  0.70667686  0.43328917  0.22500858     0.28700
H712        H  0.66337116  0.41932290  0.15856095     0.19300
H713        H  0.62875145  0.26192084  0.17666405     0.19300
C714        C  0.85437160  0.12812183  0.13036421    -0.06600
C715        C  0.87932092  0.16177074  0.15448027    -0.17700
C716        C  0.85590748  0.19117417  0.18694113     0.10600
C717        C  0.80447353  0.19118331  0.19047504    -0.06500
C718        C  0.78167220  0.15330896  0.17131068    -0.17700
C719        C  0.80518044  0.12277078  0.14084604     0.10700
S720        S  0.89404333  0.21559065  0.23345559    -0.32700
S721        S  0.77101468  0.07579687  0.12036600    -0.32700
H722        H  0.80853055  0.04517352  0.12744096     0.28700
H723        H  0.93801870  0.21200566  0.20787787     0.28700
H724        H  0.91816204  0.16266868  0.15081232     0.19300
H725        H  0.74603951  0.14495902  0.18311455     0.19300
C726        C  0.61524554  0.13851369  0.14896525    -0.06600
C727        C  0.64976354  0.16069395  0.12128616    -0.17700
C728        C  0.68222960  0.19049748  0.14219606     0.10600
C729        C  0.68047890  0.19997949  0.19487746    -0.06500
C730        C  0.64063790  0.18203440  0.22025590    -0.17700
C731        C  0.60949489  0.15059694  0.19917936     0.10700
S732        S  0.72550061  0.20752883  0.09587746    -0.32700
S733        S  0.56448095  0.12565018  0.23816361    -0.32700
H734        H  0.57545678  0.14815550  0.28239455     0.28700
H735        H  0.75848552  0.22940457  0.12526624     0.28700
H736        H  0.65298210  0.15310691  0.08207110     0.19300
H737        H  0.63352617  0.19213057  0.25755534     0.19300
C738        C  0.82280925  0.31391808  0.29197644    -0.06600
C739        C  0.86166502  0.29643281  0.31948090    -0.17700
C740        C  0.89247012  0.32279471  0.34828030     0.10600
C741        C  0.88510222  0.36859872  0.34935169    -0.06500
C742        C  0.85209836  0.38692315  0.31633942    -0.17700
C743        C  0.82441609  0.36050825  0.28454041     0.10700
S744        S  0.93929690  0.29542725  0.38331335    -0.32700
S745        S  0.80298487  0.38709408  0.22933605    -0.32700
H746        H  0.81874333  0.43009232  0.23932654     0.28700
H747        H  0.96743614  0.33238351  0.39440339     0.28700
H748        H  0.86885882  0.26188319  0.31877250     0.19300
H749        H  0.85011456  0.42241048  0.31367861     0.19300
C750        C  0.86716863  0.13478356  0.36347477    -0.06600
C751        C  0.85216033  0.17357059  0.38666768    -0.17700
C752        C  0.82194432  0.20402007  0.36249965     0.10600
C753        C  0.80821353  0.19708834  0.31163783    -0.06500
C754        C  0.81764005  0.15436796  0.29315847    -0.17700
C755        C  0.84779626  0.12424372  0.31695417     0.10700
S756        S  0.80359618  0.24930493  0.40116592    -0.32200
S757        S  0.85831386  0.07206849  0.28667527    -0.32700
H758        H  0.85785918  0.04682866  0.33028182     0.28700
H759        H  0.77426308  0.26849304  0.36597337     0.28700
H760        H  0.86403815  0.18015253  0.42431688     0.19300
H761        H  0.79983602  0.14235644  0.26084667     0.19300
C762        C  0.64788967  0.37884411  0.37095309    -0.06600
C763        C  0.62249836  0.34821969  0.34246732    -0.17700
C764        C  0.64640599  0.31575061  0.31477582     0.10600
C765        C  0.69778117  0.31442637  0.31415401    -0.06500
C766        C  0.72249853  0.34346831  0.34603189    -0.17700
C767        C  0.69862773  0.37625067  0.37280900     0.10700
S768        S  0.60996669  0.27450216  0.28513703    -0.32700
S769        S  0.73593718  0.41601917  0.40410698    -0.32700
H770        H  0.70809892  0.45244381  0.38910845     0.28700
H771        H  0.56485734  0.29505516  0.29129821     0.28700
H772        H  0.58348732  0.34929181  0.34282762     0.19300
H773        H  0.76076901  0.34176624  0.35019659     0.19300
C774        C  0.86691649  0.35710681  0.11544658    -0.06600
C775        C  0.81944191  0.34978722  0.10095839    -0.17700
C776        C  0.78856637  0.32216597  0.12719440     0.10600
C777        C  0.80499212  0.30073299  0.17190034    -0.06500
C778        C  0.85449609  0.30570015  0.18259209    -0.17700
C779        C  0.88541667  0.33286733  0.15550326     0.10700
S780        S  0.73149122  0.31841437  0.09601029    -0.32700
S781        S  0.94776206  0.33732746  0.17436776    -0.32700
H782        H  0.94728347  0.30472947  0.21124083     0.28700
H783        H  0.71400032  0.28553710  0.12434342     0.28700
H784        H  0.80523045  0.36708937  0.06904441     0.19300
H785        H  0.86852120  0.29280758  0.21611761     0.19300
C786        C  0.89550749  0.39106094  0.58986058     0.42000
N787        N  0.93894933  0.44869058  0.58026305     0.00900
C788        C  0.94554103  0.08491014  0.87470067    -0.07000
H789        H  0.98214073  0.41739115  0.83796236     0.06400
C790        C  0.62961540  0.43049544  0.94834328    -0.07300
Co791      Co  0.91226046  0.99873103  0.98876460     0.74200
N792        N  0.96000277  0.45573758  0.90168036    -0.26500
Co793      Co  0.51026590  0.50624766  0.90946829     0.74100
C794        C  0.61983765  0.41145792  0.89974574     0.42100
N795        N  0.58140014  0.45474419  0.56190637     0.00500
N796        N  0.56634660  0.46056707  0.91540980     0.00600
N797        N  0.88359076  0.07930357  0.92872735    -0.47300
H798        H  0.85368220  0.40540112  0.51730650     0.06400
N799        N  0.92276208  0.45288946  0.93180791     0.00900
N800        N  0.56195563  0.05517332  0.91854896     0.00700
C801        C  0.61458120  0.10444165  0.90249297     0.42300
N802        N  0.54406826  0.45198587  0.59183051    -0.25900
C803        C  0.86886119  0.07470575  0.55421578    -0.06900
N804        N  0.93093390  0.41531915  0.61052123    -0.47100
N805        N  0.57545044  0.08369630  0.88420159    -0.47300
C806        C  0.88096398  0.09426722  0.60225250     0.42000
N807        N  0.91698594  0.04901952  0.93705903     0.00900
N808        N  0.53987828  0.04822033  0.59892468    -0.26000
N809        N  0.91015821  0.44860677  0.54137120    -0.26500
N810        N  0.57675950  0.05128189  0.56847665     0.00500
H811        H  0.51837908  0.08448438  0.66373500     0.06400
H812        H  0.65554113  0.09127280  0.97524795     0.06500
N813        N  0.95372822  0.05149655  0.90612871    -0.26500
N814        N  0.59511299  0.46088030  0.95445381    -0.26100
N815        N  0.93337993  0.04481470  0.58455113     0.00900
C816        C  0.91421249  0.39827820  0.88157371     0.42300
C817        C  0.54887326  0.41580286  0.61964053    -0.07400
N818        N  0.59081374  0.05524432  0.95773122    -0.26100
H819        H  0.65860977  0.42379365  0.97413289     0.06500
N820        N  0.89397323  0.41968191  0.92034215    -0.47300
H821        H  0.52443559  0.40538266  0.64838543     0.06400
C822        C  0.58876385  0.10276148  0.62254298     0.42100
C823        C  0.88146885  0.41348454  0.54393831    -0.06900
Co824      Co  0.98878023  0.99876429  0.58984713     0.73800
N825        N  0.61257191  0.42214644  0.56836710    -0.47100
C826        C  0.89933232  0.10358263  0.89045593     0.42400
N827        N  0.92124573  0.07407046  0.61876920    -0.47100
Co828      Co  0.58687115  0.50598848  0.51093310     0.73900
C829        C  0.62483115  0.08587150  0.95123768    -0.07400
C830        C  0.95736821  0.42293199  0.86827641    -0.06900
N831        N  0.90344818  0.04443560  0.54640646    -0.26500
N832        N  0.57990285  0.43139233  0.88161092    -0.47200
H833        H  0.96838927  0.09422369  0.84407147     0.06400
C834        C  0.54386203  0.07951213  0.63406906    -0.07400
Cl835      Cl  0.49942617  0.00283948  0.49951562    -0.50400
C836        C  0.59362046  0.39537732  0.60306153     0.42200
H837        H  0.83852350  0.08126222  0.53003160     0.06400
N838        N  0.60663126  0.08310503  0.58128522    -0.47100
C839        C  0.72451836  0.23205701  0.78456454    -0.02900
C840        C  0.72697115  0.28342553  0.78072607    -0.02900
C841        C  0.71827882  0.28089869  0.72331965    -0.02900
C842        C  0.71733004  0.22876333  0.72602519    -0.02900
C843        C  0.78039824  0.23003125  0.77823883    -0.02900
C844        C  0.77398242  0.22561113  0.72058674    -0.02900
C845        C  0.77459475  0.27738325  0.71380249    -0.02900
C846        C  0.78342734  0.28187349  0.77160300    -0.02900
C847        C  0.70019877  0.19948586  0.82201919    -0.06600
C848        C  0.70003757  0.15459454  0.80794707    -0.17700
C849        C  0.67266162  0.12282084  0.83283995     0.10600
C850        C  0.64526141  0.13519391  0.87454110    -0.06500
C851        C  0.64864886  0.17802205  0.89208270    -0.17700
C852        C  0.67629812  0.20991578  0.86788060     0.10700
S853        S  0.67369402  0.06742084  0.80864804    -0.32700
S854        S  0.68499655  0.25872628  0.90429837    -0.32700
H855        H  0.63875728  0.25989431  0.92565034     0.28700
H856        H  0.66187528  0.04585087  0.85295429     0.28700
H857        H  0.71868240  0.14449899  0.77466540     0.19300
H858        H  0.63027191  0.18622957  0.92635317     0.19300
C859        C  0.62278491  0.36510582  0.63309228    -0.06600
C860        C  0.65899736  0.38385409  0.66147582    -0.17700
C861        C  0.68300771  0.35994428  0.69821221     0.10600
C862        C  0.67936560  0.31286895  0.69946405    -0.06500
C863        C  0.63951731  0.29529079  0.67290192    -0.17700
C864        C  0.61114595  0.32072838  0.64053970     0.10700
S865        S  0.69535634  0.39370370  0.75134750    -0.32700
S866        S  0.56162500  0.29413021  0.60913572    -0.32700
H867        H  0.55636265  0.32437238  0.57019989     0.28700
H868        H  0.70745273  0.43249250  0.72597725     0.28700
H869        H  0.66358460  0.41918060  0.65937573     0.19300
H870        H  0.62966186  0.26159547  0.67620963     0.19300
C871        C  0.85349118  0.12664864  0.63184464    -0.06600
C872        C  0.87896126  0.15969772  0.65643136    -0.17700
C873        C  0.85579587  0.18992812  0.68800430     0.10600
C874        C  0.80438944  0.19046338  0.69141569    -0.06500
C875        C  0.78113852  0.15271403  0.67246977    -0.17700
C876        C  0.80414695  0.12204496  0.64184850     0.10700
S877        S  0.89437860  0.21523568  0.73337091    -0.32700
S878        S  0.76909975  0.07593678  0.62047306    -0.32700
H879        H  0.80576891  0.04457381  0.62809270     0.28700
H880        H  0.93570276  0.21735795  0.70331985     0.28700
H881        H  0.91789915  0.15985051  0.65351621     0.19300
H882        H  0.74551046  0.14458642  0.68442396     0.19300
C883        C  0.61496123  0.13889742  0.64903866    -0.06600
C884        C  0.64967843  0.16104657  0.62157552    -0.17700
C885        C  0.68249981  0.19042288  0.64272659     0.10600
C886        C  0.68076915  0.19976934  0.69546047    -0.06500
C887        C  0.64087838  0.18176447  0.72075491    -0.17700
C888        C  0.60955325  0.15053164  0.69946625     0.10700
S889        S  0.72610657  0.20711197  0.59653552    -0.32700
S890        S  0.56483119  0.12518197  0.73849383    -0.32700
H891        H  0.57596683  0.14740820  0.78286567     0.28700
H892        H  0.75934625  0.22875040  0.62585727     0.28700
H893        H  0.65279885  0.15372146  0.58229332     0.19300
H894        H  0.63379437  0.19170773  0.75811674     0.19300
C895        C  0.82347237  0.31333306  0.79297137    -0.06600
C896        C  0.86231211  0.29580072  0.82055147    -0.17700
C897        C  0.89366121  0.32224465  0.84864963     0.10600
C898        C  0.88711622  0.36810275  0.84885362    -0.06500
C899        C  0.85436713  0.38636396  0.81557941    -0.17700
C900        C  0.82542898  0.35987790  0.78503581     0.10700
S901        S  0.94063876  0.29538431  0.88376897    -0.32700
S902        S  0.80231405  0.38639909  0.73058879    -0.32700
H903        H  0.80767863  0.43033837  0.74594113     0.28700
H904        H  0.97306986  0.33070797  0.88343976     0.28700
H905        H  0.86935209  0.26122609  0.82006765     0.19300
H906        H  0.85335754  0.42180881  0.81195435     0.19300
C907        C  0.86809281  0.13446979  0.86334620    -0.06600
C908        C  0.85289901  0.17304678  0.88685985    -0.17700
C909        C  0.82236037  0.20339095  0.86300772     0.10600
C910        C  0.80856136  0.19656705  0.81218894    -0.06500
C911        C  0.81804706  0.15393675  0.79353122    -0.17700
C912        C  0.84865140  0.12398763  0.81686959     0.10700
S913        S  0.80371152  0.24836413  0.90199074    -0.32200
S914        S  0.85950228  0.07211938  0.78600262    -0.32700
H915        H  0.86002088  0.04649698  0.82931528     0.28700
H916        H  0.77479049  0.26811111  0.86679849     0.28700
H917        H  0.86481739  0.17950096  0.92452088     0.19300
H918        H  0.79993971  0.14179192  0.76154998     0.19300
C919        C  0.64819655  0.37819716  0.87245611    -0.06600
C920        C  0.62300757  0.34739500  0.84408655    -0.17700
C921        C  0.64705419  0.31536146  0.81590202     0.10600
C922        C  0.69841749  0.31412886  0.81521710    -0.06500
C923        C  0.72307013  0.34335931  0.84705313    -0.17700
C924        C  0.69899049  0.37613250  0.87384330     0.10700
S925        S  0.61065691  0.27466118  0.78532408    -0.32700
S926        S  0.73589973  0.41684427  0.90413486    -0.32700
H927        H  0.70680207  0.45267417  0.88981156     0.28700
H928        H  0.56616983  0.29681186  0.78876863     0.28700
H929        H  0.58399183  0.34810291  0.84469821     0.19300
H930        H  0.76140095  0.34202306  0.85087717     0.19300
C931        C  0.86822351  0.35618556  0.61594906    -0.06600
C932        C  0.82090029  0.34852461  0.60124126    -0.17700
C933        C  0.78981226  0.32142422  0.62786956     0.10600
C934        C  0.80596385  0.30034237  0.67287746    -0.06500
C935        C  0.85539472  0.30564711  0.68390512    -0.17700
C936        C  0.88640461  0.33279162  0.65682165     0.10700
S937        S  0.73259782  0.31814970  0.59699668    -0.32700
S938        S  0.94849882  0.33804808  0.67646308    -0.32700
H939        H  0.94550086  0.31296529  0.72008901     0.28700
H940        H  0.71544113  0.28510273  0.62523888     0.28700
H941        H  0.80686674  0.36533254  0.56892414     0.19300
H942        H  0.86929680  0.29281144  0.71748030     0.19300
C943        C  0.89687751  0.88997981  0.08832189     0.42000
N944        N  0.93903301  0.94856812  0.07965666     0.00900
C945        C  0.94500715  0.58490102  0.37496772    -0.07000
H946        H  0.98126436  0.91779736  0.33764516     0.06400
C947        C  0.62931722  0.93058057  0.44758966    -0.07300
Co948      Co  0.91224619  0.49876926  0.48933003     0.74200
N949        N  0.95967412  0.95601884  0.40164294    -0.26500
Co950      Co  0.50995631  0.00611711  0.40886565     0.74100
C951        C  0.61954451  0.91152950  0.39902165     0.42100
N952        N  0.58170116  0.95465962  0.06216121     0.00500
N953        N  0.56612188  0.96065908  0.41462556     0.00600
N954        N  0.88320639  0.57920808  0.42915515    -0.47300
H955        H  0.85506114  0.90431864  0.01575671     0.06400
N956        N  0.92264524  0.95308277  0.43203284     0.00900
N957        N  0.56183102  0.55601987  0.41846952     0.00700
C958        C  0.61449545  0.60557832  0.40299363     0.42300
N959        N  0.54420379  0.95172321  0.09183691    -0.25900
C960        C  0.86962645  0.57554319  0.05375684    -0.06900
N961        N  0.93175123  0.91465264  0.10935160    -0.47100
N962        N  0.57555464  0.58469194  0.38430750    -0.47300
C963        C  0.88179758  0.59528935  0.10168701     0.42000
N964        N  0.91681647  0.54911210  0.43757701     0.00900
N965        N  0.53971353  0.54863694  0.09918202    -0.26000
N966        N  0.91031986  0.94844256  0.04071438    -0.26500
N967        N  0.57682974  0.55149576  0.06899101     0.00500
H968        H  0.51769053  0.58555509  0.16338750     0.06400
H969        H  0.65491211  0.59221383  0.47598215     0.06500
N970        N  0.95347935  0.55162321  0.40651742    -0.26500
N971        N  0.59487465  0.96097134  0.45366645    -0.26100
N972        N  0.93358258  0.54509204  0.08459584     0.00900
C973        C  0.91370692  0.89862656  0.38188528     0.42300
C974        C  0.54902192  0.91546390  0.11951195    -0.07400
N975        N  0.59048238  0.55600089  0.45780088    -0.26100
H976        H  0.65816290  0.92379755  0.47351404     0.06500
N977        N  0.89378412  0.91990736  0.42082354    -0.47300
H978        H  0.52449948  0.90484255  0.14808682     0.06400
C979        C  0.58842124  0.60342514  0.12259647     0.42100
C980        C  0.88244132  0.91273994  0.04270440    -0.06900
Co981      Co  0.98893633  0.49898632  0.08994948     0.73800
N982        N  0.61301419  0.92222694  0.06866694    -0.47100
C983        C  0.89870249  0.60342242  0.39069967     0.42400
N984        N  0.92169669  0.57468430  0.11856746    -0.47100
Co985      Co  0.58719651  0.00556555  0.01113831     0.73900
C986        C  0.62438441  0.58681822  0.45172090    -0.07400
C987        C  0.95673902  0.92330253  0.36817937    -0.06900
N988        N  0.90378262  0.54478316  0.04631064    -0.26500
N989        N  0.57963216  0.93145884  0.38083845    -0.47200
H990        H  0.96765452  0.59413454  0.34415204     0.06400
C991        C  0.54343443  0.58023839  0.13402207    -0.07400
Cl992      Cl  0.49948904  0.50300513  0.99990110    -0.50400
C993        C  0.59398605  0.89533086  0.10310743     0.42200
H994        H  0.83952767  0.58240255  0.02936384     0.06400
N995        N  0.60662593  0.58341529  0.08172035    -0.47100
C996        C  0.72492226  0.73256654  0.28436036    -0.02900
C997        C  0.72716900  0.78385818  0.28033869    -0.02900
C998        C  0.71848735  0.78119478  0.22296809    -0.02900
C999        C  0.71762564  0.72909651  0.22580657    -0.02900
C1000       C  0.78081852  0.73067521  0.27790516    -0.02900
C1001       C  0.77429297  0.72616106  0.22023322    -0.02900
C1002       C  0.77480341  0.77794019  0.21337495    -0.02900
C1003       C  0.78360434  0.78254969  0.27112585    -0.02900
C1004       C  0.70078569  0.70024314  0.32231221    -0.06600
C1005       C  0.70036644  0.65533981  0.30837841    -0.17700
C1006       C  0.67309539  0.62371704  0.33363615     0.10600
C1007       C  0.64577566  0.63620702  0.37532212    -0.06500
C1008       C  0.64994330  0.67891422  0.39308327    -0.17700
C1009       C  0.67815355  0.71051678  0.36900143     0.10700
S1010       S  0.67414005  0.56817056  0.31020587    -0.32700
S1011       S  0.68634242  0.75981359  0.40483265    -0.32700
H1012       H  0.68210554  0.74072472  0.45214774     0.28700
H1013       H  0.66774389  0.54760343  0.35634337     0.28700
H1014       H  0.71871594  0.64510393  0.27497324     0.19300
H1015       H  0.63085148  0.68761441  0.42678713     0.19300
C1016       C  0.62318824  0.86524849  0.13311398    -0.06600
C1017       C  0.65928725  0.88406919  0.16156520    -0.17700
C1018       C  0.68352178  0.86006316  0.19801242     0.10600
C1019       C  0.67963036  0.81304891  0.19928278    -0.06500
C1020       C  0.63972461  0.79548174  0.17285588    -0.17700
C1021       C  0.61162105  0.82088663  0.14031966     0.10700
S1022       S  0.69816896  0.89362749  0.25061196    -0.32700
S1023       S  0.56256600  0.79444380  0.10808876    -0.32700
H1024       H  0.56178459  0.82256261  0.06680586     0.28700
H1025       H  0.70920052  0.93252408  0.22493903     0.28700
H1026       H  0.66393248  0.91938397  0.15943647     0.19300
H1027       H  0.62968443  0.76184888  0.17628491     0.19300
C1028       C  0.85417661  0.62771027  0.13113331    -0.06600
C1029       C  0.87934303  0.66140906  0.15491541    -0.17700
C1030       C  0.85610326  0.69116346  0.18701216     0.10600
C1031       C  0.80474072  0.69125919  0.19079566    -0.06500
C1032       C  0.78166511  0.65340277  0.17190863    -0.17700
C1033       C  0.80504627  0.62246657  0.14189583     0.10700
S1034       S  0.89459948  0.71577894  0.23294596    -0.32700
S1035       S  0.77091293  0.57507249  0.12262456    -0.32700
H1036       H  0.80881533  0.54472241  0.12898235     0.28700
H1037       H  0.93598691  0.71836816  0.20304686     0.28700
H1038       H  0.91822314  0.66212050  0.15141729     0.19300
H1039       H  0.74598846  0.64527965  0.18375706     0.19300
C1040       C  0.61437348  0.63983978  0.14887718    -0.06600
C1041       C  0.64862442  0.66240648  0.12122629    -0.17700
C1042       C  0.68200856  0.69125304  0.14247572     0.10600
C1043       C  0.68087230  0.70012448  0.19533920    -0.06500
C1044       C  0.64117015  0.68195253  0.22080632    -0.17700
C1045       C  0.60951594  0.65102132  0.19946324     0.10700
S1046       S  0.72549598  0.70795664  0.09623532    -0.32700
S1047       S  0.56501477  0.62544202  0.23854472    -0.32700
H1048       H  0.57544048  0.64837655  0.28263927     0.28700
H1049       H  0.75880105  0.72937623  0.12565638     0.28700
H1050       H  0.65113710  0.65555830  0.08178419     0.19300
H1051       H  0.63444545  0.69153306  0.25833319     0.19300
C1052       C  0.82344848  0.81417193  0.29245531    -0.06600
C1053       C  0.86212321  0.79655265  0.32008296    -0.17700
C1054       C  0.89289473  0.82276531  0.34900769     0.10600
C1055       C  0.88631201  0.86861093  0.34943907    -0.06500
C1056       C  0.85353772  0.88709416  0.31633578    -0.17700
C1057       C  0.82530327  0.86079820  0.28492195     0.10700
S1058       S  0.93844822  0.79535085  0.38558079    -0.32700
S1059       S  0.80502404  0.88744563  0.22927752    -0.32700
H1060       H  0.81094681  0.93139715  0.24439298     0.28700
H1061       H  0.97023059  0.83098612  0.38938810     0.28700
H1062       H  0.86922438  0.76199533  0.31932984     0.19300
H1063       H  0.85239293  0.92257390  0.31314904     0.19300
C1064       C  0.86744214  0.63442325  0.36360082    -0.06600
C1065       C  0.85279700  0.67329429  0.38686082    -0.17700
C1066       C  0.82276218  0.70394737  0.36279342     0.10600
C1067       C  0.80895224  0.69717547  0.31192249    -0.06500
C1068       C  0.81811087  0.65446026  0.29335453    -0.17700
C1069       C  0.84805523  0.62412571  0.31702148     0.10700
S1070       S  0.80466369  0.74919216  0.40164583    -0.32200
S1071       S  0.85830253  0.57207642  0.28635685    -0.32700
H1072       H  0.85870766  0.54658859  0.32977170     0.28700
H1073       H  0.77560044  0.76876482  0.36645462     0.28700
H1074       H  0.86477957  0.67975943  0.42450106     0.19300
H1075       H  0.80015965  0.64255318  0.26111295     0.19300
C1076       C  0.64790237  0.87821934  0.37187945    -0.06600
C1077       C  0.62280225  0.84751658  0.34326620    -0.17700
C1078       C  0.64698106  0.81532202  0.31543975     0.10600
C1079       C  0.69834785  0.81429633  0.31481012    -0.06500
C1080       C  0.72285709  0.84340731  0.34683610    -0.17700
C1081       C  0.69866634  0.87586930  0.37389215     0.10700
S1082       S  0.61082076  0.77409482  0.28544714    -0.32700
S1083       S  0.73553118  0.91559915  0.40581766    -0.32700
H1084       H  0.70811194  0.95200305  0.38994504     0.28700
H1085       H  0.56600470  0.79559692  0.28945300     0.28700
H1086       H  0.58378102  0.84831527  0.34358973     0.19300
H1087       H  0.76118949  0.84206183  0.35078170     0.19300
C1088       C  0.86950354  0.85518222  0.11449981    -0.06600
C1089       C  0.82207773  0.84787050  0.09999448    -0.17700
C1090       C  0.79055341  0.82166181  0.12721618     0.10600
C1091       C  0.80643205  0.80076083  0.17243662    -0.06500
C1092       C  0.85598219  0.80570708  0.18334916    -0.17700
C1093       C  0.88741188  0.83204190  0.15568200     0.10700
S1094       S  0.73296138  0.81967912  0.09702686    -0.32700
S1095       S  0.94961888  0.83685684  0.17507767    -0.32700
H1096       H  0.94724451  0.80964094  0.21707616     0.28700
H1097       H  0.71566513  0.78623168  0.12455496     0.28700
H1098       H  0.80823221  0.86448189  0.06746586     0.19300
H1099       H  0.86967889  0.79341531  0.21728934     0.19300
C1100       C  0.89482166  0.89166854  0.58964220     0.42000
N1101       N  0.93852803  0.94905041  0.57989467     0.00900
C1102       C  0.94547693  0.58555816  0.87488757    -0.07000
H1103       H  0.98162796  0.91648425  0.83846598     0.06400
C1104       C  0.63025974  0.93046542  0.94726762    -0.07300
Co1105     Co  0.91231209  0.49902005  0.98866431     0.74200
N1106       N  0.95966447  0.95528067  0.90188894    -0.26500
Co1107     Co  0.51044113  0.00565166  0.90941081     0.74100
C1108       C  0.62024632  0.91171540  0.89855521     0.42100
N1109       N  0.58129251  0.95470796  0.56187899     0.00500
N1110       N  0.56651699  0.96023862  0.91510502     0.00600
N1111       N  0.88346384  0.57950487  0.92875750    -0.47300
H1112       H  0.85316802  0.90587017  0.51698198     0.06400
N1113       N  0.92231298  0.95277728  0.93190810     0.00900
N1114       N  0.56191843  0.55563323  0.91865314     0.00700
C1115       C  0.61506789  0.60442283  0.90250473     0.42300
N1116       N  0.54382189  0.95181405  0.59154905    -0.25900
C1117       C  0.86959947  0.57473646  0.55473798    -0.06900
N1118       N  0.93026088  0.91587272  0.61035263    -0.47100
N1119       N  0.57577685  0.58392275  0.88420247    -0.47300
C1120       C  0.88163486  0.59425924  0.60275271     0.42000
N1121       N  0.91693244  0.54925094  0.93691759     0.00900
N1122       N  0.54027926  0.54807026  0.59914690    -0.26000
N1123       N  0.90988686  0.94888522  0.54089417    -0.26500
N1124       N  0.57721580  0.55091441  0.56873862     0.00500
H1125       H  0.51924205  0.58423948  0.66417203     0.06400
H1126       H  0.65574168  0.59115129  0.97537763     0.06500
N1127       N  0.95370468  0.55195997  0.90605638    -0.26500
N1128       N  0.59552555  0.96052220  0.95394364    -0.26100
N1129       N  0.93386869  0.54453709  0.58528287     0.00900
C1130       C  0.91343285  0.89805687  0.88202269     0.42300
C1131       C  0.54822800  0.91519565  0.61876701    -0.07400
N1132       N  0.59067446  0.55564526  0.95790155    -0.26100
H1133       H  0.65952769  0.92383647  0.97275637     0.06500
N1134       N  0.89323135  0.91977506  0.92054340    -0.47300
H1135       H  0.52349458  0.90449785  0.64709899     0.06400
C1136       C  0.58976946  0.60204477  0.62293100     0.42100
C1137       C  0.88098949  0.91392573  0.54358599    -0.06900
Co1138     Co  0.98932813  0.49837147  0.59025224     0.73800
N1139       N  0.61216835  0.92178976  0.56801995    -0.47100
C1140       C  0.89920020  0.60406192  0.89072217     0.42400
N1141       N  0.92178331  0.57389165  0.61946051    -0.47100
Co1142     Co  0.58661589  0.00602532  0.51077881     0.73900
C1143       C  0.62499963  0.58596415  0.95135066    -0.07400
C1144       C  0.95683907  0.92233951  0.86868652    -0.06900
N1145       N  0.90398460  0.54426794  0.54708119    -0.26500
N1146       N  0.58003100  0.93143155  0.88093632    -0.47200
H1147       H  0.96837594  0.59515608  0.84441444     0.06400
C1148       C  0.54460865  0.57919508  0.63441370    -0.07400
Cl1149     Cl  0.49963838  0.50276684  0.49985139    -0.50400
C1150       C  0.59291509  0.89459154  0.60218203     0.42200
H1151       H  0.83939599  0.58146509  0.53043772     0.06400
N1152       N  0.60745994  0.58236965  0.58166582    -0.47100
C1153       C  0.72471105  0.73198888  0.78407765    -0.02900
C1154       C  0.72687876  0.78333812  0.78022226    -0.02900
C1155       C  0.71828971  0.78087302  0.72285086    -0.02900
C1156       C  0.71766481  0.72874307  0.72549924    -0.02900
C1157       C  0.78059694  0.73025806  0.77780720    -0.02900
C1158       C  0.77431387  0.72590500  0.72013615    -0.02900
C1159       C  0.77457071  0.77764418  0.71340500    -0.02900
C1160       C  0.78333651  0.78205863  0.77118948    -0.02900
C1161       C  0.70062134  0.69939571  0.82177292    -0.06600
C1162       C  0.70058753  0.65442716  0.80791575    -0.17700
C1163       C  0.67320102  0.62273354  0.83296175     0.10600
C1164       C  0.64591753  0.63514758  0.87467835    -0.06500
C1165       C  0.64939076  0.67796368  0.89217017    -0.17700
C1166       C  0.67680252  0.70988678  0.86770684     0.10700
S1167       S  0.67358418  0.56730568  0.80903643    -0.32700
S1168       S  0.68504588  0.75901139  0.90372134    -0.32700
H1169       H  0.63929473  0.75953176  0.92616277     0.28700
H1170       H  0.66762828  0.54644857  0.85507914     0.28700
H1171       H  0.71921909  0.64423433  0.77465888     0.19300
H1172       H  0.63108342  0.68617679  0.92647497     0.19300
C1173       C  0.62208530  0.86440308  0.63252435    -0.06600
C1174       C  0.65825951  0.88343437  0.66076062    -0.17700
C1175       C  0.68258332  0.85981144  0.69754204     0.10600
C1176       C  0.67922225  0.81271385  0.69906416    -0.06500
C1177       C  0.63940816  0.79485324  0.67280686    -0.17700
C1178       C  0.61082325  0.81991487  0.64029755     0.10700
S1179       S  0.69521338  0.89385975  0.75039294    -0.32700
S1180       S  0.56197289  0.79230606  0.60893127    -0.32700
H1181       H  0.55437772  0.82339781  0.57131365     0.28700
H1182       H  0.70571122  0.93302756  0.72499642     0.28700
H1183       H  0.66272368  0.91875358  0.65836179     0.19300
H1184       H  0.62975532  0.76114691  0.67645738     0.19300
C1185       C  0.85413576  0.62691668  0.63193040    -0.06600
C1186       C  0.87952280  0.66028875  0.65603346    -0.17700
C1187       C  0.85631796  0.69061451  0.68748267     0.10600
C1188       C  0.80490054  0.69101676  0.69092782    -0.06500
C1189       C  0.78173001  0.65322132  0.67215995    -0.17700
C1190       C  0.80473972  0.62243635  0.64180082     0.10700
S1191       S  0.89476030  0.71609544  0.73288331    -0.32700
S1192       S  0.76945055  0.57641347  0.62063212    -0.32700
H1193       H  0.80607588  0.54494393  0.62776560     0.28700
H1194       H  0.93745104  0.71517680  0.70482541     0.28700
H1195       H  0.91843581  0.66053004  0.65290073     0.19300
H1196       H  0.74620672  0.64498392  0.68430368     0.19300
C1197       C  0.61597684  0.63826528  0.64906294    -0.06600
C1198       C  0.65033093  0.66060497  0.62127437    -0.17700
C1199       C  0.68300166  0.69025598  0.64217472     0.10600
C1200       C  0.68138410  0.69960689  0.69492700    -0.06500
C1201       C  0.64184618  0.68136175  0.72045561    -0.17700
C1202       C  0.61078372  0.64986214  0.69947109     0.10700
S1203       S  0.72627816  0.70724156  0.59576509    -0.32700
S1204       S  0.56642889  0.62437833  0.73879675    -0.32700
H1205       H  0.57916068  0.64522676  0.78354996     0.28700
H1206       H  0.75954157  0.72889434  0.62508568     0.28700
H1207       H  0.65325788  0.65325497  0.58198167     0.19300
H1208       H  0.63470265  0.69147351  0.75773119     0.19300
C1209       C  0.82330788  0.81337199  0.79270145    -0.06600
C1210       C  0.86225590  0.79576617  0.82002959    -0.17700
C1211       C  0.89339275  0.82209035  0.84848214     0.10600
C1212       C  0.88627307  0.86790547  0.84944050    -0.06500
C1213       C  0.85317163  0.88628109  0.81660231    -0.17700
C1214       C  0.82506469  0.85991181  0.78519984     0.10700
S1215       S  0.94044552  0.79488779  0.88325031    -0.32700
S1216       S  0.80224392  0.88658477  0.73071606    -0.32700
H1217       H  0.82165072  0.92867299  0.73845787     0.28700
H1218       H  0.97117819  0.83118924  0.88799895     0.28700
H1219       H  0.86948118  0.76123657  0.81920445     0.19300
H1220       H  0.85116610  0.92177107  0.81395797     0.19300
C1221       C  0.86787844  0.63490036  0.86363190    -0.06600
C1222       C  0.85255809  0.67349395  0.88702562    -0.17700
C1223       C  0.82225961  0.70386852  0.86288567     0.10600
C1224       C  0.80883250  0.69700922  0.81192901    -0.06500
C1225       C  0.81854032  0.65443302  0.79331892    -0.17700
C1226       C  0.84875048  0.62442009  0.81703815     0.10700
S1227       S  0.80360439  0.74900323  0.90163107    -0.32200
S1228       S  0.85928911  0.57229775  0.78667670    -0.32700
H1229       H  0.85796506  0.54699861  0.83021690     0.28700
H1230       H  0.77458298  0.76836999  0.86630397     0.28700
H1231       H  0.86423234  0.67996089  0.92476527     0.19300
H1232       H  0.80075353  0.64232029  0.76113720     0.19300
C1233       C  0.64832172  0.87858678  0.87093491    -0.06600
C1234       C  0.62294218  0.84793020  0.84247325    -0.17700
C1235       C  0.64685136  0.81534966  0.81496021     0.10600
C1236       C  0.69821166  0.81407777  0.81435759    -0.06500
C1237       C  0.72291780  0.84326954  0.84607800    -0.17700
C1238       C  0.69905344  0.87620349  0.87259765     0.10700
S1239       S  0.61051207  0.77419206  0.78495231    -0.32700
S1240       S  0.73631130  0.91650051  0.90312978    -0.32700
H1241       H  0.70758462  0.95262019  0.88897459     0.28700
H1242       H  0.56493377  0.78993961  0.79945022     0.28700
H1243       H  0.58394215  0.84920367  0.84254438     0.19300
H1244       H  0.76116507  0.84161276  0.85031082     0.19300
C1245       C  0.86755636  0.85677020  0.61558143    -0.06600
C1246       C  0.82008786  0.84942482  0.60119857    -0.17700
C1247       C  0.78923708  0.82196750  0.62761577     0.10600
C1248       C  0.80564225  0.80074548  0.67244796    -0.06500
C1249       C  0.85511280  0.80595145  0.68323067    -0.17700
C1250       C  0.88609591  0.83277905  0.65579795     0.10700
S1251       S  0.73212055  0.81831525  0.59657813    -0.32700
S1252       S  0.94868500  0.83678618  0.67404626    -0.32700
H1253       H  0.94753311  0.80649529  0.71333303     0.28700
H1254       H  0.71516429  0.78507770  0.62468785     0.28700
H1255       H  0.80585550  0.86657744  0.56919788     0.19300
H1256       H  0.86911919  0.79339328  0.71689772     0.19300
loop_ 
_geom_bond_atom_site_label_1 
_geom_bond_atom_site_label_2 
_geom_bond_distance 
_geom_bond_site_symmetry_2 
_ccdc_geom_bond_type 
C1           N19   1.350       .  A
C1           C38   1.465       .  S
C1          C146   1.485       .  S
N2           N19   1.324       .  A
N2           N24   1.316       .  A
N2         Co353   2.080       .  S
C3           N28   1.343       .  A
C3           C41   1.463       .  S
C3           H48   1.082       .  S
H4           C45   1.082       .  S
C5           N29   1.337       .  A
C5            C9   1.456       .  S
C5           H34   1.081       .  S
Co6          N22   2.079   1_565  S
Co6         N495   2.075       .  S
Co6         N328   2.091       .  S
Co6         N203   2.101   1_565  S
Co6        Cl835   2.443   1_565  S
N7           C45   1.344       .  A
N7           N14   1.320       .  A
N7         Co636   2.094       .  S
Co8          N11   2.084       .  S
Co8         N635   2.095   1_455  S
Co8         N970   2.099   1_455  S
Co8         N329   2.103       .  S
Co8        Cl521   2.461   1_455  S
C9           N47   1.351       .  A
C9          C134   1.472       .  S
N10          N17   1.317       .  A
N10          N40   1.324       .  A
N10         Co43   2.085       .  S
N11          N29   1.319       .  A
N11          N47   1.324       .  A
N12          C41   1.346       .  A
N12          N22   1.323       .  A
H13          C38   1.081       .  S
N14          N35   1.326       .  A
N14        Co320   2.090       .  S
N15          N33   1.324       .  A
N15          N20   1.328       .  A
N15        Co322   2.099       .  S
C16          N20   1.351       .  A
C16          C44   1.459       .  S
C16          C65   1.479       .  S
N17          C32   1.340       .  A
N17        Co981   2.077   1_455  S
C18          N46   1.343       .  A
C18          C21   1.462       .  S
C18          H52   1.081       .  S
C21          N42   1.349       .  A
C21          C86   1.477       .  S
N22          N28   1.322       .  A
N23          C49   1.345       .  A
N23          N25   1.317       .  A
N23        Co667   2.089   1_445  S
N24          C38   1.337       .  A
N24        Co477   2.073   1_554  S
N25          N53   1.322       .  A
N25        Co357   2.089       .  S
H26          C49   1.079       .  S
H27          C44   1.082       .  S
N28        Co950   2.097       .  S
N29        Co200   2.071       .  S
N30          N42   1.324       .  A
N30          N46   1.321       .  A
N30         Co39   2.081   1_545  S
C31          N35   1.350       .  A
C31          C45   1.462       .  S
C31         C113   1.476       .  S
C32          C51   1.457       .  S
C32          H36   1.080       .  S
N33          C44   1.342       .  A
N33        Co514   2.096       .  S
C37          N53   1.354       .  A
C37          C49   1.471       .  S
C37          C98   1.498       .  S
Co39        N316   2.080       .  S
Co39        N959   2.076       .  S
Co39        N651   2.088   1_565  S
Co39       Cl678   2.457   1_564  S
N40          C51   1.351       .  A
C41         C122   1.470       .  S
Co43        N339   2.086       .  S
Co43        N186   2.068   1_554  S
Co43        N504   2.093   1_554  S
Co43       Cl364   2.443   1_454  S
N46        Co163   2.096   1_544  S
Cl50       Co791   2.445   1_545  S
Cl50       Co479   2.459   1_655  S
Cl50       Co667   2.457   1_546  S
Cl50       Co357   2.442   1_656  S
C51          C74   1.467       .  S
C54          C55   1.566       .  S
C54          C57   1.593       .  S
C54          C58   1.561       .  S
C54          C62   1.571       .  S
C55          C56   1.566       .  S
C55          C61   1.586       .  S
C55         C137   1.531       .  S
C56          C57   1.588       .  S
C56          C60   1.586       .  S
C56          C77   1.585       .  S
C57          C59   1.580       .  S
C57         C101   1.577       .  S
C58          C59   1.570       .  S
C58          C61   1.590       .  S
C58         C125   1.576       .  S
C59          C60   1.586       .  S
C59          C89   1.567       .  S
C60          C61   1.582       .  S
C60         C149   1.572       .  S
C61         C110   1.577       .  S
C62          C63   1.416       .  A
C62          C67   1.438       .  A
C63          H72   1.079       .  S
C63          C64   1.405       .  A
C64          C65   1.407       .  A
C64          S68   1.803       .  S
C65          C66   1.388       .  A
C66          H73   1.084       .  S
C66          C67   1.404       .  A
C67          S69   1.793       .  S
S68          H71   1.406       .  S
S69          H70   1.408       .  S
C74          C75   1.386       .  A
C74          C79   1.405       .  A
C75          H84   1.084       .  S
C75          C76   1.397       .  A
C76          C77   1.436       .  A
C76          S80   1.792       .  S
C77          C78   1.420       .  A
C78          H85   1.066       .  S
C78          C79   1.404       .  A
C79          S81   1.805       .  S
S80          H83   1.408       .  S
S81          H82   1.404       .  S
C86          C87   1.396       .  A
C86          C91   1.405       .  A
C87          H96   1.083       .  S
C87          C88   1.406       .  A
C88          C89   1.429       .  A
C88          S92   1.798       .  S
C89          C90   1.414       .  A
C90          H97   1.071       .  S
C90          C91   1.397       .  A
C91          S93   1.804       .  S
S92          H95   1.407       .  S
S93          H94   1.406       .  S
C98          C99   1.395       .  A
C98         C103   1.411       .  A
C99         H108   1.085       .  S
C99         C100   1.400       .  A
C100        C101   1.450       .  A
C100        S104   1.815       .  S
C101        C102   1.414       .  A
C102        H109   1.068       .  S
C102        C103   1.409       .  A
C103        S105   1.806       .  S
S104        H107   1.382       .  S
S105        H106   1.407       .  S
C110        C111   1.411       .  A
C110        C115   1.434       .  A
C111        H120   1.069       .  S
C111        C112   1.406       .  A
C112        C113   1.404       .  A
C112        S116   1.802       .  S
C113        C114   1.390       .  A
C114        H121   1.083       .  S
C114        C115   1.404       .  A
C115        S117   1.793       .  S
S116        H119   1.406       .  S
S117        H118   1.407       .  S
C122        C123   1.395       .  A
C122        C127   1.399       .  A
C123        H132   1.085       .  S
C123        C124   1.406       .  A
C124        C125   1.437       .  A
C124        S128   1.797       .  S
C125        C126   1.413       .  A
C126        H133   1.063       .  S
C126        C127   1.393       .  A
C127        S129   1.806       .  S
S128        H131   1.379       .  S
S129        H130   1.406       .  S
C134        C135   1.397       .  A
C134        C139   1.410       .  A
C135        H144   1.083       .  S
C135        C136   1.400       .  A
C136        C137   1.425       .  A
C136        S140   1.798       .  S
C137        C138   1.410       .  A
C138        H145   1.068       .  S
C138        C139   1.395       .  A
C139        S141   1.803       .  S
S140        H143   1.407       .  S
S141        H142   1.407       .  S
C146        C147   1.391       .  A
C146        C151   1.404       .  A
C147        H156   1.082       .  S
C147        C148   1.397       .  A
C148        C149   1.443       .  A
C148        S152   1.794       .  S
C149        C150   1.412       .  A
C150        H157   1.059       .  S
C150        C151   1.402       .  A
C151        S153   1.808       .  S
S152        H155   1.355       .  S
S153        H154   1.406       .  S
C158        N176   1.351       .  A
C158        C195   1.467       .  S
C158        C303   1.489       .  S
N159        N176   1.325       .  A
N159        N181   1.316       .  A
N159       Co510   2.083       .  S
C160        N185   1.344       .  A
C160        C198   1.465       .  S
C160        H205   1.082       .  S
H161        C202   1.081       .  S
C162        N186   1.336       .  A
C162        C166   1.455       .  S
C162        H191   1.081       .  S
Co163       N338   2.072   1_556  S
Co163       N485   2.091       .  S
Co163       N179   2.076   1_565  S
Co163      Cl678   2.444   1_565  S
N164        C202   1.344       .  A
N164        N171   1.319       .  A
N164       Co793   2.092       .  S
Co165       N792   2.094   1_455  S
Co165       N168   2.081       .  S
Co165      N1127   2.096   1_455  S
Co165       N486   2.098       .  S
Co165      Cl364   2.461   1_455  S
C166        N204   1.351       .  A
C166        C291   1.471       .  S
N167        N174   1.317       .  A
N167        N197   1.324       .  A
N167       Co200   2.085       .  S
N168        N186   1.319       .  A
N168        N204   1.323       .  A
N169        C198   1.345       .  A
N169        N179   1.323       .  A
H170        C195   1.081       .  S
N171        N192   1.326       .  A
N171       Co477   2.089       .  S
N172        N190   1.324       .  A
N172        N177   1.327       .  A
N172       Co479   2.098       .  S
C173        N177   1.351       .  A
C173        C201   1.456       .  S
C173        C222   1.476       .  S
N174        C189   1.340       .  A
N174      Co1138   2.078   1_455  S
C175        N203   1.345       .  A
C175        C178   1.464       .  S
C175        H209   1.081       .  S
C178        N199   1.348       .  A
C178        C243   1.480       .  S
N179        N185   1.321       .  A
N180        C206   1.345       .  A
N180        N182   1.318       .  A
N180       Co824   2.087   1_445  S
N181        C195   1.339       .  A
N181       Co320   2.080       .  S
N182        N210   1.322       .  A
N182       Co514   2.088       .  S
H183        C206   1.079       .  S
H184        C201   1.082       .  S
N185      Co1107   2.099       .  S
N187        N199   1.324       .  A
N187        N203   1.321       .  A
N187       Co196   2.080   1_545  S
C188        N192   1.350       .  A
C188        C202   1.462       .  S
C188        C270   1.476       .  S
C189        C208   1.457       .  S
C189        H193   1.080       .  S
N190        C201   1.340       .  A
N190       Co357   2.086   1_556  S
C194        N210   1.355       .  A
C194        C206   1.469       .  S
C194        C255   1.497       .  S
Co196       N473   2.080       .  S
Co196      N1116   2.076       .  S
Co196       N808   2.089   1_565  S
Co196      Cl835   2.459   1_565  S
N197        C208   1.351       .  A
C198        C279   1.472       .  S
Co200       N496   2.090       .  S
Co200       N347   2.093       .  S
Co200      Cl521   2.445   1_455  S
Cl207      Co634   2.445   1_545  S
Cl207      Co322   2.461   1_655  S
Cl207      Co824   2.456   1_545  S
Cl207      Co514   2.443   1_655  S
C208        C231   1.467       .  S
C211        C212   1.568       .  S
C211        C214   1.594       .  S
C211        C215   1.562       .  S
C211        C219   1.573       .  S
C212        C213   1.566       .  S
C212        C218   1.586       .  S
C212        C294   1.532       .  S
C213        C214   1.588       .  S
C213        C217   1.587       .  S
C213        C234   1.584       .  S
C214        C216   1.582       .  S
C214        C258   1.579       .  S
C215        C216   1.570       .  S
C215        C218   1.590       .  S
C215        C282   1.575       .  S
C216        C217   1.586       .  S
C216        C246   1.569       .  S
C217        C218   1.581       .  S
C217        C306   1.576       .  S
C218        C267   1.576       .  S
C219        C220   1.416       .  A
C219        C224   1.440       .  A
C220        H229   1.079       .  S
C220        C221   1.404       .  A
C221        C222   1.406       .  A
C221        S225   1.804       .  S
C222        C223   1.388       .  A
C223        H230   1.083       .  S
C223        C224   1.405       .  A
C224        S226   1.799       .  S
S225        H228   1.406       .  S
S226        H227   1.406       .  S
C231        C232   1.386       .  A
C231        C236   1.405       .  A
C232        H241   1.084       .  S
C232        C233   1.396       .  A
C233        C234   1.436       .  A
C233        S237   1.794       .  S
C234        C235   1.420       .  A
C235        H242   1.066       .  S
C235        C236   1.403       .  A
C236        S238   1.805       .  S
S237        H240   1.408       .  S
S238        H239   1.405       .  S
C243        C244   1.398       .  A
C243        C248   1.405       .  A
C244        H253   1.083       .  S
C244        C245   1.407       .  A
C245        C246   1.430       .  A
C245        S249   1.799       .  S
C246        C247   1.413       .  A
C247        H254   1.071       .  S
C247        C248   1.397       .  A
C248        S250   1.803       .  S
S249        H252   1.407       .  S
S250        H251   1.406       .  S
C255        C256   1.393       .  A
C255        C260   1.411       .  A
C256        H265   1.085       .  S
C256        C257   1.398       .  A
C257        C258   1.451       .  A
C257        S261   1.813       .  S
C258        C259   1.416       .  A
C259        H266   1.070       .  S
C259        C260   1.411       .  A
C260        S262   1.806       .  S
S261        H264   1.381       .  S
S262        H263   1.406       .  S
C267        C268   1.410       .  A
C267        C272   1.434       .  A
C268        H277   1.069       .  S
C268        C269   1.406       .  A
C269        C270   1.406       .  A
C269        S273   1.804       .  S
C270        C271   1.390       .  A
C271        H278   1.083       .  S
C271        C272   1.403       .  A
C272        S274   1.794       .  S
S273        H276   1.405       .  S
S274        H275   1.406       .  S
C279        C280   1.397       .  A
C279        C284   1.400       .  A
C280        H289   1.085       .  S
C280        C281   1.407       .  A
C281        C282   1.436       .  A
C281        S285   1.798       .  S
C282        C283   1.413       .  A
C283        H290   1.063       .  S
C283        C284   1.393       .  A
C284        S286   1.805       .  S
S285        H288   1.379       .  S
S286        H287   1.406       .  S
C291        C292   1.397       .  A
C291        C296   1.411       .  A
C292        H301   1.083       .  S
C292        C293   1.400       .  A
C293        C294   1.425       .  A
C293        S297   1.797       .  S
C294        C295   1.411       .  A
C295        H302   1.069       .  S
C295        C296   1.396       .  A
C296        S298   1.804       .  S
S297        H300   1.407       .  S
S298        H299   1.407       .  S
C303        C304   1.392       .  A
C303        C308   1.405       .  A
C304        H313   1.082       .  S
C304        C305   1.399       .  A
C305        C306   1.443       .  A
C305        S309   1.793       .  S
C306        C307   1.413       .  A
C307        H314   1.059       .  S
C307        C308   1.405       .  A
C308        S310   1.809       .  S
S309        H312   1.353       .  S
S310        H311   1.407       .  S
C315        N333   1.351       .  A
C315        C352   1.464       .  S
C315        C460   1.484       .  S
N316        N333   1.324       .  A
N316        N338   1.316       .  A
C317        N342   1.343       .  A
C317        C355   1.462       .  S
C317        H362   1.082       .  S
H318        C359   1.082       .  S
C319        N343   1.337       .  A
C319        C323   1.456       .  S
C319        H348   1.081       .  S
Co320       N517   2.096       .  S
Co320       N336   2.079       .  S
Co320     Cl1149   2.444       .  S
N321        C359   1.344       .  A
N321        N328   1.319       .  A
N321       Co950   2.093   1_565  S
Co322       N949   2.094   1_445  S
Co322       N325   2.083   1_545  S
Co322       N656   2.099   1_455  S
C323        N361   1.351       .  A
C323        C448   1.472       .  S
N324        N331   1.317       .  A
N324        N354   1.324       .  A
N324       Co357   2.083   1_565  S
N325        N343   1.319       .  A
N325        N361   1.323       .  A
N326        C355   1.346       .  A
N326        N336   1.323       .  A
H327        C352   1.081       .  S
N328        N349   1.326       .  A
N329        N347   1.324       .  A
N329        N334   1.328       .  A
C330        N334   1.352       .  A
C330        C358   1.458       .  S
C330        C379   1.482       .  S
N331        C346   1.340       .  A
N331       Co667   2.078   1_455  S
C332        N360   1.343       .  A
C332        C335   1.462       .  S
C332        H366   1.082       .  S
C335        N356   1.347       .  A
C335        C400   1.474       .  S
N336        N342   1.322       .  A
N337        C363   1.346       .  A
N337        N339   1.318       .  A
N337       Co981   2.096   1_455  S
N338        C352   1.337       .  A
N339        N367   1.322       .  A
H340        C363   1.079       .  S
H341        C358   1.082       .  S
N342       Co636   2.093       .  S
N343       Co514   2.071   1_565  S
N344        N356   1.322       .  A
N344        N360   1.320       .  A
N344       Co353   2.076       .  S
C345        N349   1.350       .  A
C345        C359   1.462       .  S
C345        C427   1.475       .  S
C346        C365   1.457       .  S
C346        H350   1.080       .  S
N347        C358   1.342       .  A
C351        N367   1.354       .  A
C351        C363   1.472       .  S
C351        C412   1.499       .  S
Co353       N645   2.073       .  S
Co353       N965   2.092       .  S
Co353      Cl992   2.455   1_554  S
N354        C365   1.351       .  A
C355        C436   1.470       .  S
Co357       N500   2.071   1_544  S
N360       Co477   2.093   1_554  S
Cl364     Co1105   2.445       .  S
Cl364      Co981   2.456   1_556  S
C365        C388   1.466       .  S
C368        C369   1.566       .  S
C368        C371   1.594       .  S
C368        C372   1.562       .  S
C368        C376   1.575       .  S
C369        C370   1.566       .  S
C369        C375   1.586       .  S
C369        C451   1.532       .  S
C370        C371   1.587       .  S
C370        C374   1.584       .  S
C370        C391   1.584       .  S
C371        C373   1.580       .  S
C371        C415   1.573       .  S
C372        C373   1.570       .  S
C372        C375   1.589       .  S
C372        C439   1.576       .  S
C373        C374   1.587       .  S
C373        C403   1.569       .  S
C374        C375   1.582       .  S
C374        C463   1.575       .  S
C375        C424   1.572       .  S
C376        C377   1.416       .  A
C376        C381   1.441       .  A
C377        H386   1.080       .  S
C377        C378   1.405       .  A
C378        C379   1.406       .  A
C378        S382   1.801       .  S
C379        C380   1.389       .  A
C380        H387   1.084       .  S
C380        C381   1.406       .  A
C381        S383   1.797       .  S
S382        H385   1.407       .  S
S383        H384   1.408       .  S
C388        C389   1.386       .  A
C388        C393   1.405       .  A
C389        H398   1.084       .  S
C389        C390   1.396       .  A
C390        C391   1.437       .  A
C390        S394   1.794       .  S
C391        C392   1.420       .  A
C392        H399   1.066       .  S
C392        C393   1.404       .  A
C393        S395   1.806       .  S
S394        H397   1.408       .  S
S395        H396   1.404       .  S
C400        C401   1.396       .  A
C400        C405   1.404       .  A
C401        H410   1.083       .  S
C401        C402   1.405       .  A
C402        C403   1.430       .  A
C402        S406   1.797       .  S
C403        C404   1.414       .  A
C404        H411   1.071       .  S
C404        C405   1.397       .  A
C405        S407   1.804       .  S
S406        H409   1.408       .  S
S407        H408   1.406       .  S
C412        C413   1.396       .  A
C412        C417   1.411       .  A
C413        H422   1.085       .  S
C413        C414   1.400       .  A
C414        C415   1.449       .  A
C414        S418   1.815       .  S
C415        C416   1.412       .  A
C416        H423   1.069       .  S
C416        C417   1.408       .  A
C417        S419   1.805       .  S
S418        H421   1.381       .  S
S419        H420   1.407       .  S
C424        C425   1.410       .  A
C424        C429   1.430       .  A
C425        H434   1.069       .  S
C425        C426   1.405       .  A
C426        C427   1.407       .  A
C426        S430   1.805       .  S
C427        C428   1.391       .  A
C428        H435   1.083       .  S
C428        C429   1.402       .  A
C429        S431   1.792       .  S
S430        H433   1.403       .  S
S431        H432   1.406       .  S
C436        C437   1.395       .  A
C436        C441   1.400       .  A
C437        H446   1.085       .  S
C437        C438   1.406       .  A
C438        C439   1.438       .  A
C438        S442   1.797       .  S
C439        C440   1.413       .  A
C440        H447   1.064       .  S
C440        C441   1.393       .  A
C441        S443   1.806       .  S
S442        H445   1.378       .  S
S443        H444   1.405       .  S
C448        C449   1.397       .  A
C448        C453   1.411       .  A
C449        H458   1.083       .  S
C449        C450   1.401       .  A
C450        C451   1.426       .  A
C450        S454   1.799       .  S
C451        C452   1.410       .  A
C452        H459   1.069       .  S
C452        C453   1.395       .  A
C453        S455   1.803       .  S
S454        H457   1.407       .  S
S455        H456   1.408       .  S
C460        C461   1.392       .  A
C460        C465   1.403       .  A
C461        H470   1.083       .  S
C461        C462   1.399       .  A
C462        C463   1.445       .  A
C462        S466   1.796       .  S
C463        C464   1.411       .  A
C464        H471   1.058       .  S
C464        C465   1.402       .  A
C465        S467   1.809       .  S
S466        H469   1.354       .  S
S467        H468   1.406       .  S
C472        N490   1.351       .  A
C472        C509   1.465       .  S
C472        C617   1.486       .  S
N473        N490   1.324       .  A
N473        N495   1.316       .  A
C474        N499   1.343       .  A
C474        C512   1.464       .  S
C474        H519   1.082       .  S
H475        C516   1.081       .  S
C476        N500   1.337       .  A
C476        C480   1.456       .  S
C476        H505   1.081       .  S
Co477       N493   2.075       .  S
Co477      Cl992   2.445       .  S
N478        C516   1.344       .  A
N478        N485   1.319       .  A
N478      Co1107   2.093   1_565  S
Co479      N1106   2.095   1_445  S
Co479       N482   2.082   1_545  S
Co479       N813   2.096   1_455  S
C480        N518   1.351       .  A
C480        C605   1.472       .  S
N481        N488   1.318       .  A
N481        N511   1.324       .  A
N481       Co514   2.088   1_565  S
N482        N500   1.319       .  A
N482        N518   1.323       .  A
N483        C512   1.345       .  A
N483        N493   1.322       .  A
H484        C509   1.081       .  S
N485        N506   1.326       .  A
N486        N504   1.324       .  A
N486        N491   1.327       .  A
C487        N491   1.351       .  A
C487        C515   1.458       .  S
C487        C536   1.479       .  S
N488        C503   1.340       .  A
N488       Co824   2.076   1_455  S
C489        N517   1.343       .  A
C489        C492   1.462       .  S
C489        H523   1.082       .  S
C492        N513   1.349       .  A
C492        C557   1.477       .  S
N493        N499   1.322       .  A
N494        C520   1.345       .  A
N494        N496   1.318       .  A
N494      Co1138   2.092   1_455  S
N495        C509   1.338       .  A
N496        N524   1.323       .  A
H497        C520   1.079       .  S
H498        C515   1.082       .  S
N499       Co793   2.098       .  S
N501        N513   1.324       .  A
N501        N517   1.320       .  A
N501       Co510   2.080       .  S
C502        N506   1.351       .  A
C502        C516   1.463       .  S
C502        C584   1.477       .  S
C503        C522   1.457       .  S
C503        H507   1.080       .  S
N504        C515   1.342       .  A
C508        N524   1.355       .  A
C508        C520   1.471       .  S
C508        C569   1.499       .  S
Co510       N802   2.074       .  S
Co510      N1122   2.089       .  S
Co510     Cl1149   2.459       .  S
N511        C522   1.351       .  A
C512        C593   1.470       .  S
Cl521      Co948   2.446       .  S
Cl521     Co1138   2.457       .  S
C522        C545   1.467       .  S
C525        C526   1.566       .  S
C525        C528   1.594       .  S
C525        C529   1.561       .  S
C525        C533   1.574       .  S
C526        C527   1.566       .  S
C526        C532   1.586       .  S
C526        C608   1.531       .  S
C527        C528   1.587       .  S
C527        C531   1.586       .  S
C527        C548   1.582       .  S
C528        C530   1.581       .  S
C528        C572   1.576       .  S
C529        C530   1.570       .  S
C529        C532   1.592       .  S
C529        C596   1.576       .  S
C530        C531   1.587       .  S
C530        C560   1.568       .  S
C531        C532   1.581       .  S
C531        C620   1.576       .  S
C532        C581   1.576       .  S
C533        C534   1.416       .  A
C533        C538   1.441       .  A
C534        H543   1.080       .  S
C534        C535   1.405       .  A
C535        C536   1.407       .  A
C535        S539   1.804       .  S
C536        C537   1.388       .  A
C537        H544   1.084       .  S
C537        C538   1.404       .  A
C538        S540   1.797       .  S
S539        H542   1.406       .  S
S540        H541   1.408       .  S
C545        C546   1.385       .  A
C545        C550   1.404       .  A
C546        H555   1.084       .  S
C546        C547   1.396       .  A
C547        C548   1.436       .  A
C547        S551   1.791       .  S
C548        C549   1.420       .  A
C549        H556   1.066       .  S
C549        C550   1.404       .  A
C550        S552   1.804       .  S
S551        H554   1.408       .  S
S552        H553   1.405       .  S
C557        C558   1.397       .  A
C557        C562   1.405       .  A
C558        H567   1.084       .  S
C558        C559   1.406       .  A
C559        C560   1.429       .  A
C559        S563   1.797       .  S
C560        C561   1.413       .  A
C561        H568   1.071       .  S
C561        C562   1.397       .  A
C562        S564   1.804       .  S
S563        H566   1.407       .  S
S564        H565   1.406       .  S
C569        C570   1.395       .  A
C569        C574   1.411       .  A
C570        H579   1.085       .  S
C570        C571   1.400       .  A
C571        C572   1.450       .  A
C571        S575   1.814       .  S
C572        C573   1.413       .  A
C573        H580   1.069       .  S
C573        C574   1.409       .  A
C574        S576   1.806       .  S
S575        H578   1.381       .  S
S576        H577   1.407       .  S
C581        C582   1.410       .  A
C581        C586   1.435       .  A
C582        H591   1.068       .  S
C582        C583   1.405       .  A
C583        C584   1.406       .  A
C583        S587   1.803       .  S
C584        C585   1.390       .  A
C585        H592   1.083       .  S
C585        C586   1.403       .  A
C586        S588   1.794       .  S
S587        H590   1.405       .  S
S588        H589   1.407       .  S
C593        C594   1.395       .  A
C593        C598   1.399       .  A
C594        H603   1.085       .  S
C594        C595   1.405       .  A
C595        C596   1.437       .  A
C595        S599   1.796       .  S
C596        C597   1.414       .  A
C597        H604   1.063       .  S
C597        C598   1.394       .  A
C598        S600   1.805       .  S
S599        H602   1.377       .  S
S600        H601   1.406       .  S
C605        C606   1.397       .  A
C605        C610   1.410       .  A
C606        H615   1.083       .  S
C606        C607   1.401       .  A
C607        C608   1.425       .  A
C607        S611   1.800       .  S
C608        C609   1.410       .  A
C609        H616   1.069       .  S
C609        C610   1.395       .  A
C610        S612   1.803       .  S
S611        H614   1.406       .  S
S612        H613   1.407       .  S
C617        C618   1.391       .  A
C617        C622   1.403       .  A
C618        H627   1.082       .  S
C618        C619   1.399       .  A
C619        C620   1.445       .  A
C619        S623   1.795       .  S
C620        C621   1.413       .  A
C621        H628   1.058       .  S
C621        C622   1.403       .  A
C622        S624   1.809       .  S
S623        H626   1.353       .  S
S624        H625   1.406       .  S
C629        N647   1.351       .  A
C629        C666   1.465       .  S
C629        C774   1.486       .  S
N630        N647   1.325       .  A
N630        N652   1.317       .  A
N630       Co981   2.084       .  S
C631        N656   1.344       .  A
C631        C669   1.464       .  S
C631        H676   1.082       .  S
H632        C673   1.081       .  S
C633        N657   1.337       .  A
C633        C637   1.456       .  S
C633        H662   1.081       .  S
Co634      N1123   2.077       .  S
Co634       N956   2.087       .  S
Co634       N831   2.091   1_565  S
Co634       N650   2.079   1_565  S
N635        C673   1.344       .  A
N635        N642   1.320       .  A
Co636       N639   2.081       .  S
Co636       N957   2.101       .  S
Co636     Cl1149   2.462       .  S
C637        N675   1.351       .  A
C637        C762   1.473       .  S
N638        N645   1.317       .  A
N638        N668   1.323       .  A
N638       Co671   2.082       .  S
N639        N657   1.319       .  A
N639        N675   1.323       .  A
N640        C669   1.346       .  A
N640        N650   1.323       .  A
H641        C666   1.081       .  S
N642        N663   1.326       .  A
N642       Co948   2.089       .  S
N643        N661   1.324       .  A
N643        N648   1.328       .  A
N643       Co950   2.100       .  S
C644        N648   1.352       .  A
C644        C672   1.458       .  S
C644        C693   1.480       .  S
N645        C660   1.339       .  A
C646        N674   1.344       .  A
C646        C649   1.462       .  S
C646        H680   1.082       .  S
C649        N670   1.350       .  A
C649        C714   1.479       .  S
N650        N656   1.322       .  A
N651        C677   1.345       .  A
N651        N653   1.318       .  A
N652        C666   1.338       .  A
N652      Co1105   2.075   1_554  S
N653        N681   1.321       .  A
N653       Co985   2.088       .  S
H654        C677   1.079       .  S
H655        C672   1.082       .  S
N657       Co828   2.071       .  S
N658        N670   1.324       .  A
N658        N674   1.320       .  A
N658       Co667   2.084   1_545  S
C659        N663   1.350       .  A
C659        C673   1.462       .  S
C659        C741   1.476       .  S
C660        C679   1.456       .  S
C660        H664   1.080       .  S
N661        C672   1.342       .  A
N661      Co1142   2.097       .  S
C665        N681   1.354       .  A
C665        C677   1.470       .  S
C665        C726   1.496       .  S
Co667       N944   2.080       .  S
N668        C679   1.351       .  A
C669        C750   1.473       .  S
Co671       N967   2.091       .  S
Co671       N814   2.072   1_554  S
Co671      N1132   2.092   1_554  S
Co671      Cl992   2.443   1_554  S
N674       Co791   2.093   1_544  S
Cl678     Co1107   2.459       .  S
Cl678      Co985   2.443   1_556  S
C679        C702   1.465       .  S
C682        C683   1.565       .  S
C682        C685   1.594       .  S
C682        C686   1.562       .  S
C682        C690   1.572       .  S
C683        C684   1.565       .  S
C683        C689   1.586       .  S
C683        C765   1.532       .  S
C684        C685   1.587       .  S
C684        C688   1.585       .  S
C684        C705   1.583       .  S
C685        C687   1.582       .  S
C685        C729   1.575       .  S
C686        C687   1.570       .  S
C686        C689   1.591       .  S
C686        C753   1.576       .  S
C687        C688   1.586       .  S
C687        C717   1.571       .  S
C688        C689   1.581       .  S
C688        C777   1.572       .  S
C689        C738   1.575       .  S
C690        C691   1.415       .  A
C690        C695   1.441       .  A
C691        H700   1.080       .  S
C691        C692   1.404       .  A
C692        C693   1.407       .  A
C692        S696   1.802       .  S
C693        C694   1.389       .  A
C694        H701   1.084       .  S
C694        C695   1.405       .  A
C695        S697   1.798       .  S
S696        H699   1.406       .  S
S697        H698   1.408       .  S
C702        C703   1.385       .  A
C702        C707   1.404       .  A
C703        H712   1.084       .  S
C703        C704   1.395       .  A
C704        C705   1.437       .  A
C704        S708   1.794       .  S
C705        C706   1.421       .  A
C706        H713   1.067       .  S
C706        C707   1.404       .  A
C707        S709   1.805       .  S
S708        H711   1.408       .  S
S709        H710   1.405       .  S
C714        C715   1.397       .  A
C714        C719   1.405       .  A
C715        H724   1.083       .  S
C715        C716   1.407       .  A
C716        C717   1.431       .  A
C716        S720   1.800       .  S
C717        C718   1.413       .  A
C718        H725   1.072       .  S
C718        C719   1.398       .  A
C719        S721   1.803       .  S
S720        H723   1.407       .  S
S721        H722   1.407       .  S
C726        C727   1.394       .  A
C726        C731   1.411       .  A
C727        H736   1.085       .  S
C727        C728   1.398       .  A
C728        C729   1.449       .  A
C728        S732   1.813       .  S
C729        C730   1.414       .  A
C730        H737   1.069       .  S
C730        C731   1.409       .  A
C731        S733   1.806       .  S
S732        H735   1.381       .  S
S733        H734   1.406       .  S
C738        C739   1.410       .  A
C738        C743   1.433       .  A
C739        H748   1.069       .  S
C739        C740   1.406       .  A
C740        C741   1.407       .  A
C740        S744   1.806       .  S
C741        C742   1.391       .  A
C742        H749   1.083       .  S
C742        C743   1.403       .  A
C743        S745   1.795       .  S
S744        H747   1.403       .  S
S745        H746   1.406       .  S
C750        C751   1.396       .  A
C750        C755   1.400       .  A
C751        H760   1.085       .  S
C751        C752   1.407       .  A
C752        C753   1.437       .  A
C752        S756   1.797       .  S
C753        C754   1.414       .  A
C754        H761   1.065       .  S
C754        C755   1.395       .  A
C755        S757   1.805       .  S
S756        H759   1.378       .  S
S757        H758   1.406       .  S
C762        C763   1.398       .  A
C762        C767   1.411       .  A
C763        H772   1.083       .  S
C763        C764   1.402       .  A
C764        C765   1.426       .  A
C764        S768   1.799       .  S
C765        C766   1.410       .  A
C766        H773   1.069       .  S
C766        C767   1.395       .  A
C767        S769   1.802       .  S
S768        H771   1.406       .  S
S769        H770   1.407       .  S
C774        C775   1.392       .  A
C774        C779   1.404       .  A
C775        H784   1.082       .  S
C775        C776   1.398       .  A
C776        C777   1.444       .  A
C776        S780   1.795       .  S
C777        C778   1.412       .  A
C778        H785   1.059       .  S
C778        C779   1.402       .  A
C779        S781   1.808       .  S
S780        H783   1.353       .  S
S781        H782   1.406       .  S
C786        N804   1.350       .  A
C786        C823   1.466       .  S
C786        C931   1.486       .  S
N787        N804   1.324       .  A
N787        N809   1.316       .  A
N787      Co1138   2.080       .  S
C788        N813   1.343       .  A
C788        C826   1.463       .  S
C788        H833   1.082       .  S
H789        C830   1.082       .  S
C790        N814   1.338       .  A
C790        C794   1.456       .  S
C790        H819   1.081       .  S
Co791       N966   2.078   1_556  S
Co791      N1113   2.089       .  S
Co791       N807   2.078   1_565  S
N792        C830   1.344       .  A
N792        N799   1.319       .  A
Co793       N796   2.087       .  S
Co793      N1114   2.095       .  S
Co793      Cl992   2.459       .  S
C794        N832   1.352       .  A
C794        C919   1.475       .  S
N795        N802   1.318       .  A
N795        N825   1.324       .  A
N795       Co828   2.088       .  S
N796        N814   1.319       .  A
N796        N832   1.324       .  A
N797        C826   1.346       .  A
N797        N807   1.323       .  A
H798        C823   1.081       .  S
N799        N820   1.326       .  A
N799      Co1105   2.095       .  S
N800        N818   1.324       .  A
N800        N805   1.327       .  A
N800      Co1107   2.095       .  S
C801        N805   1.350       .  A
C801        C829   1.459       .  S
C801        C850   1.478       .  S
N802        C817   1.340       .  A
C803        N831   1.343       .  A
C803        C806   1.462       .  S
C803        H837   1.082       .  S
C806        N827   1.348       .  A
C806        C871   1.476       .  S
N807        N813   1.321       .  A
N808        C834   1.346       .  A
N808        N810   1.317       .  A
N809        C823   1.338       .  A
N809       Co948   2.077       .  S
N810        N838   1.322       .  A
N810      Co1142   2.091       .  S
H811        C834   1.079       .  S
H812        C829   1.082       .  S
N815        N827   1.323       .  A
N815        N831   1.320       .  A
N815       Co824   2.080   1_545  S
C816        N820   1.352       .  A
C816        C830   1.462       .  S
C816        C898   1.478       .  S
C817        C836   1.456       .  S
C817        H821   1.080       .  S
N818        C829   1.342       .  A
N818       Co985   2.093   1_556  S
C822        N838   1.355       .  A
C822        C834   1.470       .  S
C822        C883   1.499       .  S
Co824      N1101   2.079       .  S
N825        C836   1.351       .  A
C826        C907   1.470       .  S
Co828      N1124   2.086       .  S
Co828       N975   2.096       .  S
Co828     Cl1149   2.441       .  S
Cl835      Co950   2.464       .  S
Cl835     Co1142   2.440       .  S
C836        C859   1.467       .  S
C839        C840   1.568       .  S
C839        C842   1.593       .  S
C839        C843   1.561       .  S
C839        C847   1.573       .  S
C840        C841   1.567       .  S
C840        C846   1.587       .  S
C840        C922   1.535       .  S
C841        C842   1.588       .  S
C841        C845   1.587       .  S
C841        C862   1.586       .  S
C842        C844   1.582       .  S
C842        C886   1.577       .  S
C843        C844   1.569       .  S
C843        C846   1.590       .  S
C843        C910   1.574       .  S
C844        C845   1.586       .  S
C844        C874   1.569       .  S
C845        C846   1.582       .  S
C845        C934   1.574       .  S
C846        C895   1.577       .  S
C847        C848   1.416       .  A
C847        C852   1.438       .  A
C848        H857   1.080       .  S
C848        C849   1.406       .  A
C849        C850   1.408       .  A
C849        S853   1.805       .  S
C850        C851   1.388       .  A
C851        H858   1.084       .  S
C851        C852   1.403       .  A
C852        S854   1.794       .  S
S853        H856   1.405       .  S
S854        H855   1.408       .  S
C859        C860   1.385       .  A
C859        C864   1.405       .  A
C860        H869   1.084       .  S
C860        C861   1.396       .  A
C861        C862   1.437       .  A
C861        S865   1.793       .  S
C862        C863   1.422       .  A
C863        H870   1.066       .  S
C863        C864   1.405       .  A
C864        S866   1.806       .  S
S865        H868   1.408       .  S
S866        H867   1.405       .  S
C871        C872   1.396       .  A
C871        C876   1.404       .  A
C872        H881   1.084       .  S
C872        C873   1.405       .  A
C873        C874   1.430       .  A
C873        S877   1.797       .  S
C874        C875   1.413       .  A
C875        H882   1.071       .  S
C875        C876   1.397       .  A
C876        S878   1.803       .  S
S877        H880   1.408       .  S
S878        H879   1.407       .  S
C883        C884   1.394       .  A
C883        C888   1.412       .  A
C884        H893   1.085       .  S
C884        C885   1.398       .  A
C885        C886   1.450       .  A
C885        S889   1.814       .  S
C886        C887   1.415       .  A
C887        H894   1.069       .  S
C887        C888   1.411       .  A
C888        S890   1.806       .  S
S889        H892   1.381       .  S
S890        H891   1.407       .  S
C895        C896   1.411       .  A
C895        C900   1.434       .  A
C896        H905   1.069       .  S
C896        C897   1.406       .  A
C897        C898   1.406       .  A
C897        S901   1.803       .  S
C898        C899   1.390       .  A
C899        H906   1.083       .  S
C899        C900   1.404       .  A
C900        S902   1.793       .  S
S901        H904   1.405       .  S
S902        H903   1.406       .  S
C907        C908   1.396       .  A
C907        C912   1.399       .  A
C908        H917   1.085       .  S
C908        C909   1.406       .  A
C909        C910   1.436       .  A
C909        S913   1.797       .  S
C910        C911   1.413       .  A
C911        H918   1.063       .  S
C911        C912   1.393       .  A
C912        S914   1.806       .  S
S913        H916   1.378       .  S
S914        H915   1.406       .  S
C919        C920   1.397       .  A
C919        C924   1.411       .  A
C920        H929   1.083       .  S
C920        C921   1.401       .  A
C921        C922   1.426       .  A
C921        S925   1.798       .  S
C922        C923   1.412       .  A
C923        H930   1.069       .  S
C923        C924   1.398       .  A
C924        S926   1.803       .  S
S925        H928   1.407       .  S
S926        H927   1.408       .  S
C931        C932   1.391       .  A
C931        C936   1.405       .  A
C932        H941   1.082       .  S
C932        C933   1.398       .  A
C933        C934   1.443       .  A
C933        S937   1.794       .  S
C934        C935   1.413       .  A
C935        H942   1.058       .  S
C935        C936   1.403       .  A
C936        S938   1.809       .  S
S937        H940   1.352       .  S
S938        H939   1.407       .  S
C943        N961   1.350       .  A
C943        C980   1.467       .  S
C943       C1088   1.487       .  S
N944        N961   1.324       .  A
N944        N966   1.316       .  A
C945        N970   1.344       .  A
C945        C983   1.464       .  S
C945        H990   1.082       .  S
H946        C987   1.082       .  S
C947        N971   1.336       .  A
C947        C951   1.455       .  S
C947        H976   1.081       .  S
Co948      N1145   2.092       .  S
Co948       N964   2.079       .  S
N949        C987   1.344       .  A
N949        N956   1.319       .  A
Co950       N953   2.084   1_545  S
C951        N989   1.352       .  A
C951       C1076   1.474       .  S
N952        N959   1.318       .  A
N952        N982   1.323       .  A
N952       Co985   2.081   1_565  S
N953        N971   1.319       .  A
N953        N989   1.324       .  A
N954        C983   1.346       .  A
N954        N964   1.323       .  A
H955        C980   1.081       .  S
N956        N977   1.325       .  A
N957        N975   1.324       .  A
N957        N962   1.328       .  A
C958        N962   1.352       .  A
C958        C986   1.459       .  S
C958       C1007   1.481       .  S
N959        C974   1.339       .  A
C960        N988   1.344       .  A
C960        C963   1.463       .  S
C960        H994   1.082       .  S
C963        N984   1.348       .  A
C963       C1028   1.477       .  S
N964        N970   1.322       .  A
N965        C991   1.346       .  A
N965        N967   1.318       .  A
N966        C980   1.338       .  A
N967        N995   1.322       .  A
H968        C991   1.079       .  S
H969        C986   1.082       .  S
N971      Co1142   2.070   1_565  S
N972        N984   1.323       .  A
N972        N988   1.321       .  A
N972       Co981   2.080       .  S
C973        N977   1.350       .  A
C973        C987   1.463       .  S
C973       C1055   1.475       .  S
C974        C993   1.456       .  S
C974        H978   1.080       .  S
N975        C986   1.342       .  A
C979        N995   1.355       .  A
C979        C991   1.471       .  S
C979       C1040   1.499       .  S
N982        C993   1.350       .  A
C983       C1064   1.472       .  S
Co985      N1128   2.072   1_544  S
N988      Co1105   2.096   1_554  S
C993       C1016   1.464       .  S
C996        C997   1.566       .  S
C996        C999   1.594       .  S
C996       C1000   1.562       .  S
C996       C1004   1.574       .  S
C997        C998   1.566       .  S
C997       C1003   1.587       .  S
C997       C1079   1.533       .  S
C998        C999   1.587       .  S
C998       C1002   1.587       .  S
C998       C1019   1.581       .  S
C999       C1001   1.582       .  S
C999       C1043   1.578       .  S
C1000      C1001   1.570       .  S
C1000      C1003   1.591       .  S
C1000      C1067   1.576       .  S
C1001      C1002   1.587       .  S
C1001      C1031   1.568       .  S
C1002      C1003   1.581       .  S
C1002      C1091   1.577       .  S
C1003      C1052   1.576       .  S
C1004      C1005   1.416       .  A
C1004      C1009   1.441       .  A
C1005      H1014   1.080       .  S
C1005      C1006   1.406       .  A
C1006      C1007   1.407       .  A
C1006      S1010   1.802       .  S
C1007      C1008   1.388       .  A
C1008      H1015   1.084       .  S
C1008      C1009   1.404       .  A
C1009      S1011   1.796       .  S
S1010      H1013   1.406       .  S
S1011      H1012   1.408       .  S
C1016      C1017   1.385       .  A
C1016      C1021   1.403       .  A
C1017      H1026   1.084       .  S
C1017      C1018   1.395       .  A
C1018      C1019   1.435       .  A
C1018      S1022   1.792       .  S
C1019      C1020   1.421       .  A
C1020      H1027   1.066       .  S
C1020      C1021   1.403       .  A
C1021      S1023   1.804       .  S
S1022      H1025   1.408       .  S
S1023      H1024   1.406       .  S
C1028      C1029   1.397       .  A
C1028      C1033   1.405       .  A
C1029      H1038   1.084       .  S
C1029      C1030   1.406       .  A
C1030      C1031   1.429       .  A
C1030      S1034   1.797       .  S
C1031      C1032   1.413       .  A
C1032      H1039   1.071       .  S
C1032      C1033   1.397       .  A
C1033      S1035   1.803       .  S
S1034      H1037   1.408       .  S
S1035      H1036   1.407       .  S
C1040      C1041   1.394       .  A
C1040      C1045   1.411       .  A
C1041      H1050   1.085       .  S
C1041      C1042   1.399       .  A
C1042      C1043   1.450       .  A
C1042      S1046   1.813       .  S
C1043      C1044   1.415       .  A
C1044      H1051   1.068       .  S
C1044      C1045   1.411       .  A
C1045      S1047   1.806       .  S
S1046      H1049   1.381       .  S
S1047      H1048   1.407       .  S
C1052      C1053   1.409       .  A
C1052      C1057   1.435       .  A
C1053      H1062   1.069       .  S
C1053      C1054   1.404       .  A
C1054      C1055   1.406       .  A
C1054      S1058   1.804       .  S
C1055      C1056   1.390       .  A
C1056      H1063   1.083       .  S
C1056      C1057   1.403       .  A
C1057      S1059   1.795       .  S
S1058      H1061   1.404       .  S
S1059      H1060   1.407       .  S
C1064      C1065   1.396       .  A
C1064      C1069   1.400       .  A
C1065      H1074   1.085       .  S
C1065      C1066   1.406       .  A
C1066      C1067   1.437       .  A
C1066      S1070   1.797       .  S
C1067      C1068   1.413       .  A
C1068      H1075   1.064       .  S
C1068      C1069   1.394       .  A
C1069      S1071   1.805       .  S
S1070      H1073   1.378       .  S
S1071      H1072   1.406       .  S
C1076      C1077   1.397       .  A
C1076      C1081   1.411       .  A
C1077      H1086   1.083       .  S
C1077      C1078   1.401       .  A
C1078      C1079   1.426       .  A
C1078      S1082   1.799       .  S
C1079      C1080   1.411       .  A
C1080      H1087   1.069       .  S
C1080      C1081   1.396       .  A
C1081      S1083   1.803       .  S
S1082      H1085   1.407       .  S
S1083      H1084   1.408       .  S
C1088      C1089   1.391       .  A
C1088      C1093   1.405       .  A
C1089      H1098   1.082       .  S
C1089      C1090   1.398       .  A
C1090      C1091   1.443       .  A
C1090      S1094   1.793       .  S
C1091      C1092   1.414       .  A
C1092      H1099   1.058       .  S
C1092      C1093   1.405       .  A
C1093      S1095   1.809       .  S
S1094      H1097   1.352       .  S
S1095      H1096   1.406       .  S
C1100      N1118   1.350       .  A
C1100      C1137   1.465       .  S
C1100      C1245   1.485       .  S
N1101      N1118   1.324       .  A
N1101      N1123   1.316       .  A
C1102      N1127   1.343       .  A
C1102      C1140   1.464       .  S
C1102      H1147   1.082       .  S
H1103      C1144   1.081       .  S
C1104      N1128   1.337       .  A
C1104      C1108   1.457       .  S
C1104      H1133   1.081       .  S
Co1105     N1121   2.077       .  S
N1106      C1144   1.344       .  A
N1106      N1113   1.319       .  A
Co1107     N1110   2.081   1_545  S
C1108      N1146   1.350       .  A
C1108      C1233   1.472       .  S
N1109      N1116   1.317       .  A
N1109      N1139   1.325       .  A
N1109     Co1142   2.091   1_565  S
N1110      N1128   1.319       .  A
N1110      N1146   1.323       .  A
N1111      C1140   1.345       .  A
N1111      N1121   1.323       .  A
H1112      C1137   1.081       .  S
N1113      N1134   1.326       .  A
N1114      N1132   1.324       .  A
N1114      N1119   1.327       .  A
C1115      N1119   1.350       .  A
C1115      C1143   1.458       .  S
C1115      C1164   1.478       .  S
N1116      C1131   1.341       .  A
C1117      N1145   1.343       .  A
C1117      C1120   1.461       .  S
C1117      H1151   1.082       .  S
C1120      N1141   1.349       .  A
C1120      C1185   1.476       .  S
N1121      N1127   1.321       .  A
N1122      C1148   1.345       .  A
N1122      N1124   1.317       .  A
N1123      C1137   1.337       .  A
N1124      N1152   1.321       .  A
H1125      C1148   1.079       .  S
H1126      C1143   1.082       .  S
N1129      N1141   1.324       .  A
N1129      N1145   1.321       .  A
N1129     Co1138   2.083       .  S
C1130      N1134   1.351       .  A
C1130      C1144   1.462       .  S
C1130      C1212   1.476       .  S
C1131      C1150   1.457       .  S
C1131      H1135   1.080       .  S
N1132      C1143   1.342       .  A
C1136      N1152   1.354       .  A
C1136      C1148   1.470       .  S
C1136      C1197   1.497       .  S
N1139      C1150   1.353       .  A
C1140      C1221   1.470       .  S
C1150      C1173   1.470       .  S
C1153      C1154   1.567       .  S
C1153      C1156   1.593       .  S
C1153      C1157   1.561       .  S
C1153      C1161   1.574       .  S
C1154      C1155   1.566       .  S
C1154      C1160   1.586       .  S
C1154      C1236   1.531       .  S
C1155      C1156   1.588       .  S
C1155      C1159   1.586       .  S
C1155      C1176   1.586       .  S
C1156      C1158   1.581       .  S
C1156      C1200   1.574       .  S
C1157      C1158   1.569       .  S
C1157      C1160   1.589       .  S
C1157      C1224   1.574       .  S
C1158      C1159   1.585       .  S
C1158      C1188   1.567       .  S
C1159      C1160   1.581       .  S
C1159      C1248   1.572       .  S
C1160      C1209   1.574       .  S
C1161      C1162   1.417       .  A
C1161      C1166   1.439       .  A
C1162      H1171   1.080       .  S
C1162      C1163   1.406       .  A
C1163      C1164   1.407       .  A
C1163      S1167   1.803       .  S
C1164      C1165   1.387       .  A
C1165      H1172   1.084       .  S
C1165      C1166   1.404       .  A
C1166      S1168   1.795       .  S
S1167      H1170   1.406       .  S
S1168      H1169   1.408       .  S
C1173      C1174   1.386       .  A
C1173      C1178   1.407       .  A
C1174      H1183   1.084       .  S
C1174      C1175   1.397       .  A
C1175      C1176   1.437       .  A
C1175      S1179   1.794       .  S
C1176      C1177   1.420       .  A
C1177      H1184   1.066       .  S
C1177      C1178   1.405       .  A
C1178      S1180   1.805       .  S
S1179      H1182   1.408       .  S
S1180      H1181   1.404       .  S
C1185      C1186   1.396       .  A
C1185      C1190   1.404       .  A
C1186      H1195   1.083       .  S
C1186      C1187   1.406       .  A
C1187      C1188   1.430       .  A
C1187      S1191   1.798       .  S
C1188      C1189   1.412       .  A
C1189      H1196   1.071       .  S
C1189      C1190   1.395       .  A
C1190      S1192   1.803       .  S
S1191      H1194   1.407       .  S
S1192      H1193   1.406       .  S
C1197      C1198   1.395       .  A
C1197      C1202   1.410       .  A
C1198      H1207   1.085       .  S
C1198      C1199   1.398       .  A
C1199      C1200   1.450       .  A
C1199      S1203   1.815       .  S
C1200      C1201   1.413       .  A
C1201      H1208   1.069       .  S
C1201      C1202   1.408       .  A
C1202      S1204   1.806       .  S
S1203      H1206   1.382       .  S
S1204      H1205   1.406       .  S
C1209      C1210   1.411       .  A
C1209      C1214   1.432       .  A
C1210      H1219   1.069       .  S
C1210      C1211   1.406       .  A
C1211      C1212   1.407       .  A
C1211      S1215   1.804       .  S
C1212      C1213   1.391       .  A
C1213      H1220   1.083       .  S
C1213      C1214   1.402       .  A
C1214      S1216   1.793       .  S
S1215      H1218   1.404       .  S
S1216      H1217   1.406       .  S
C1221      C1222   1.396       .  A
C1221      C1226   1.399       .  A
C1222      H1231   1.085       .  S
C1222      C1223   1.406       .  A
C1223      C1224   1.437       .  A
C1223      S1227   1.797       .  S
C1224      C1225   1.412       .  A
C1225      H1232   1.063       .  S
C1225      C1226   1.392       .  A
C1226      S1228   1.805       .  S
S1227      H1230   1.377       .  S
S1228      H1229   1.406       .  S
C1233      C1234   1.398       .  A
C1233      C1238   1.410       .  A
C1234      H1243   1.083       .  S
C1234      C1235   1.401       .  A
C1235      C1236   1.426       .  A
C1235      S1239   1.800       .  S
C1236      C1237   1.410       .  A
C1237      H1244   1.068       .  S
C1237      C1238   1.394       .  A
C1238      S1240   1.803       .  S
S1239      H1242   1.406       .  S
S1240      H1241   1.407       .  S
C1245      C1246   1.391       .  A
C1245      C1250   1.404       .  A
C1246      H1255   1.082       .  S
C1246      C1247   1.397       .  A
C1247      C1248   1.443       .  A
C1247      S1251   1.794       .  S
C1248      C1249   1.412       .  A
C1249      H1256   1.058       .  S
C1249      C1250   1.402       .  A
C1250      S1252   1.809       .  S
S1251      H1254   1.352       .  S
S1252      H1253   1.406       .  S
