geometry optimzed in LAMMPS
_audit_creation_date              2020-12-01 
_audit_creation_method            'lammps2cif' 
_symmetry_space_group_name_H-M    'P1' 
_symmetry_Int_Tables_number       1 
_symmetry_cell_setting            triclinic 
loop_ 
_symmetry_equiv_pos_as_xyz 
  x,y,z 
_cell_length_a                    45.89676121 
_cell_length_b                    45.91240420066432 
_cell_length_c                    33.618454641296196 
_cell_angle_alpha                 90.17222382440444 
_cell_angle_beta                  90.05547376912578 
_cell_angle_gamma                 126.81884966548051 
loop_ 
_atom_site_label 
_atom_site_type_symbol 
_atom_site_fract_x 
_atom_site_fract_y 
_atom_site_fract_z 
_atom_site_charge 
C1          C  0.52305898  0.84440712  0.99506625     0.79500
N2          N  0.52136904  0.85852426  0.29380106    -0.78800
C3          C  0.51461032  0.88353827  0.29411332     0.81900
N4          N  0.51086073  0.89555463  0.32932306    -0.78800
C5          C  0.51343822  0.88221551  0.03079992     0.82000
N6          N  0.51995123  0.85697883  0.03020607    -0.80500
C7          C  0.37613640  0.92667320  0.32712950     0.79500
N8          N  0.39549320  0.94096536  0.29306043    -0.78800
C9          C  0.43201267  0.96679344  0.29406059     0.81900
N10         N  0.44963783  0.97841098  0.32956852    -0.78800
C11         C  0.43068811  0.96446055  0.03069996     0.82000
N12         N  0.39418758  0.93798012  0.02932788    -0.80500
N13         N  0.63489273  0.04694301  0.20740942    -0.06900
N14         N  0.65773886  0.06534730  0.23703705    -0.59000
N15         N  0.62148510  0.01181180  0.11576821    -0.06600
N16         N  0.63450802  0.00558619  0.08444456    -0.61100
N17         N  0.63374998  0.04608081  0.11664373    -0.06200
N18         N  0.65573059  0.06404637  0.08656315    -0.59000
N19         N  0.62252931  0.01265046  0.20838906    -0.05800
N20         N  0.63624957  0.00685869  0.23935669    -0.61500
C21         C  0.65843176  0.04012205  0.25654435     0.95300
C22         C  0.65589482  0.03855514  0.06681944     0.95100
N23         N  0.51105542  0.92551031  0.11633898    -0.07100
N24         N  0.49340976  0.90393752  0.08532510    -0.59600
N25         N  0.54547130  0.93682659  0.20802510    -0.05200
N26         N  0.55161892  0.92259639  0.23782385    -0.60800
N27         N  0.51183235  0.92649983  0.20905226    -0.07100
N28         N  0.49451488  0.90541198  0.24021501    -0.59800
N29         N  0.54471077  0.93585862  0.11724405    -0.04800
N30         N  0.55051939  0.92115952  0.08755096    -0.60900
Mn31       Mn  0.58409138  0.97371040  0.16236481     1.18400
C32         C  0.51839663  0.90127948  0.06804768     0.97400
C33         C  0.51972871  0.90314391  0.25754352     0.98000
N34         N  0.59684466  0.08540749  0.11585716    -0.07100
N35         N  0.61436793  0.10649747  0.08479615    -0.63400
N36         N  0.56380134  0.07581945  0.20727883    -0.05900
N37         N  0.55794412  0.09019580  0.23724742    -0.64100
N38         N  0.59739375  0.08602887  0.20819484    -0.06600
N39         N  0.61501890  0.10721815  0.23938444    -0.63700
N40         N  0.56320939  0.07507912  0.11660765    -0.05500
N41         N  0.55724461  0.08932796  0.08666887    -0.64400
Mn42       Mn  0.61686621  0.06724663  0.16206925     1.10700
C43         C  0.58928340  0.10877929  0.06722492     0.98600
C44         C  0.59001165  0.10967476  0.25682433     0.98700
N45         N  0.47475209  0.96608359  0.20823605    -0.06600
N46         N  0.45272319  0.94849862  0.23845313    -0.62000
N47         N  0.48605584  0.99927714  0.11633046    -0.05900
N48         N  0.47242927  0.00518846  0.08540826    -0.58700
N49         N  0.47360786  0.96494908  0.11727084    -0.07300
N50         N  0.45081012  0.94664782  0.08755768    -0.61600
N51         N  0.48706324  0.00037779  0.20864709    -0.06200
N52         N  0.47406095  0.00700193  0.23962927    -0.58800
Mn53       Mn  0.49160188  0.94456580  0.16271381     1.20200
Mn54       Mn  0.52448984  0.03821374  0.16215944     1.10100
Cl55       Cl  0.55424031  0.00591237  0.16231685    -0.86700
C56         C  0.45259136  0.97428073  0.25764840     0.95600
C57         C  0.45026234  0.97199932  0.06812182     0.95400
C58         C  0.58815518  0.16841618  0.99592094     0.79500
N59         N  0.58963977  0.15438734  0.03063844    -0.78800
C60         C  0.59465541  0.12814016  0.03049619     0.81900
N61         N  0.59721582  0.11512767  0.99541944    -0.78800
C62         C  0.59518695  0.12869127  0.29388228     0.82000
N63         N  0.59005595  0.15486715  0.29417812    -0.80500
C64         C  0.73196267  0.08874518  0.99738568     0.79500
N65         N  0.71439917  0.07602622  0.29526828    -0.78800
C66         C  0.67826718  0.04808036  0.29391735     0.81900
N67         N  0.65937629  0.03365624  0.32833769    -0.78800
C68         C  0.67683292  0.04686235  0.03056212     0.82000
N69         N  0.71283381  0.07475291  0.03153757    -0.80500
N70         N  0.97934331  0.46315305  0.21636291    -0.06900
N71         N  0.95843894  0.44549875  0.24753670    -0.59000
N72         N  0.98803392  0.49609015  0.12490545    -0.06600
N73         N  0.97331787  0.50160171  0.09504565    -0.61100
N74         N  0.97839120  0.46272327  0.12385253    -0.06200
N75         N  0.95732925  0.44494843  0.09261454    -0.59000
N76         N  0.98898679  0.49651463  0.21555408    -0.05800
N77         N  0.97450880  0.50218754  0.24551788    -0.61500
C78         C  0.95560188  0.47026846  0.26508069     0.95300
C79         C  0.95426141  0.46957601  0.07532609     0.95100
N80         N  0.09745751  0.58639560  0.12451721    -0.07100
N81         N  0.11489827  0.60841139  0.09433159    -0.59600
N82         N  0.06376793  0.57386953  0.21619674    -0.05200
N83         N  0.05730425  0.58684166  0.24735487    -0.60800
N84         N  0.09827021  0.58688500  0.21529583    -0.07100
N85         N  0.11616859  0.60945069  0.24527459    -0.59800
N86         N  0.06295432  0.57338903  0.12394028    -0.04800
N87         N  0.05601482  0.58589412  0.09281480    -0.60900
Mn88       Mn  0.02534410  0.53551180  0.17015085     1.18400
C89         C  0.08879254  0.60778530  0.07496803     0.97400
C90         C  0.09035118  0.60919343  0.26483162     0.98000
N91         N  0.01896197  0.42693544  0.12385070    -0.07100
N92         N  0.00066934  0.40419188  0.09411557    -0.63400
N93         N  0.05485358  0.44065951  0.21490890    -0.05900
N94         N  0.06190576  0.42811628  0.24593176    -0.64100
N95         N  0.02040663  0.42784776  0.21464284    -0.06600
N96         N  0.00312841  0.40594644  0.24494264    -0.63700
N97         N  0.05346887  0.44001044  0.12243298    -0.05500
N98         N  0.05950758  0.42686232  0.09105929    -0.64400
Mn99       Mn  0.99810879  0.44394776  0.16970352     1.10700
C100        C  0.02619347  0.40432900  0.07407663     0.98600
C101        C  0.02924365  0.40640327  0.26406526     0.98700
N102        N  0.13914563  0.55117382  0.21522551    -0.06600
N103        N  0.16020138  0.56884877  0.24649489    -0.62000
N104        N  0.12867151  0.51768969  0.12319605    -0.05900
N105        N  0.14323572  0.51216033  0.09319291    -0.58700
N106        N  0.13849398  0.55113070  0.12270598    -0.07300
N107        N  0.15958060  0.56896236  0.09168616    -0.61600
N108        N  0.12964253  0.51786033  0.21390544    -0.06200
N109        N  0.14442796  0.51229500  0.24366102    -0.58800
Mn110      Mn  0.11953293  0.57013743  0.16947781     1.20200
Mn111      Mn  0.09225853  0.47850314  0.16851893     1.10100
Cl112      Cl  0.05882037  0.50703073  0.16944678    -0.86700
C113        C  0.16342948  0.54424454  0.26354884     0.95600
C114        C  0.16234810  0.54422445  0.07390369     0.95400
C115        C  0.22146589  0.54178019  0.00301407     0.79500
N116        N  0.20828146  0.54383376  0.30129097    -0.78800
C117        C  0.18253355  0.54960961  0.30070283     0.81900
N118        N  0.16918487  0.55233990  0.00210887    -0.78800
C119        C  0.18205662  0.54983535  0.03730665     0.82000
N120        N  0.20767497  0.54392116  0.03761007    -0.80500
C121        C  0.97907935  0.33044012  0.99971606     0.79500
N122        N  0.99466156  0.34964490  0.29922075    -0.78800
C123        C  0.02179090  0.38581236  0.30031276     0.81900
N124        N  0.03367674  0.40338658  0.00248996    -0.78800
C125        C  0.01840739  0.38456126  0.03671905     0.82000
N126        N  0.99047929  0.34843787  0.03513032    -0.80500
C127        C  0.89694993  0.47333925  0.00276458     0.79500
N128        N  0.91077760  0.47132231  0.30146979    -0.78800
C129        C  0.93595255  0.46478486  0.30164997     0.81900
N130        N  0.94837491  0.46151014  0.00343959    -0.78800
C131        C  0.93512674  0.46418298  0.03823199     0.82000
N132        N  0.90985110  0.47055962  0.03774967    -0.80500
C133        C  0.13592254  0.68333293  0.00491134     0.79500
N134        N  0.12239403  0.66441659  0.03924276    -0.78800
C135        C  0.09609458  0.62802124  0.03854886     0.81900
N136        N  0.08386457  0.61011182  0.00321359    -0.78800
C137        C  0.09761100  0.62891299  0.30201653     0.82000
N138        N  0.12405381  0.66538081  0.30300098    -0.80500
N139        N  0.51798126  0.42959358  0.12320276    -0.06900
N140        N  0.50086474  0.40859753  0.09169067    -0.59000
N141        N  0.55165160  0.44025600  0.21489419    -0.06600
N142        N  0.55780596  0.42603573  0.24465358    -0.61100
N143        N  0.51791011  0.42959569  0.21573734    -0.06200
N144        N  0.50048762  0.40831509  0.24672291    -0.59000
N145        N  0.55176012  0.44034309  0.12430321    -0.05800
N146        N  0.55823946  0.42651295  0.09432403    -0.61500
C147        C  0.52641391  0.40684840  0.07434894     0.95300
C148        C  0.52578608  0.40624462  0.26409490     0.95100
N149        N  0.63999785  0.55013537  0.21603904    -0.07100
N150        N  0.66132146  0.56710190  0.24736410    -0.59600
N151        N  0.62834416  0.51597518  0.12445390    -0.05200
N152        N  0.64217009  0.50925292  0.09469672    -0.60800
N153        N  0.63967319  0.54993179  0.12349877    -0.07100
N154        N  0.66106265  0.56694718  0.09247543    -0.59800
N155        N  0.62836722  0.51606482  0.21511551    -0.04800
N156        N  0.64191851  0.50923559  0.24504991    -0.60900
Mn157      Mn  0.59048979  0.47767743  0.16971833     1.18400
C158        C  0.66238291  0.54118005  0.26477620     0.97400
C159        C  0.66247829  0.54118109  0.07517875     0.98000
N160        N  0.48092152  0.46901513  0.21619588    -0.07100
N161        N  0.45977813  0.45220907  0.24746201    -0.63400
N162        N  0.49197518  0.50258505  0.12482543    -0.05900
N163        N  0.47832985  0.50920804  0.09483601    -0.64100
N164        N  0.48059537  0.46860294  0.12383943    -0.06600
N165        N  0.45935150  0.45145695  0.09257103    -0.63700
N166        N  0.49249153  0.50306440  0.21535234    -0.05500
N167        N  0.47904983  0.51003092  0.24528900    -0.64400
Mn168      Mn  0.49794251  0.44782192  0.16973644     1.10700
C169        C  0.45877257  0.47820557  0.26492929     0.98600
C170        C  0.45812961  0.47720955  0.07515981     0.98700
N171        N  0.60215291  0.58906234  0.12336301    -0.06600
N172        N  0.61916619  0.61013949  0.09210774    -0.62000
N173        N  0.56934028  0.57891045  0.21537575    -0.05900
N174        N  0.56355403  0.59316407  0.24555342    -0.58700
N175        N  0.60307756  0.58952904  0.21588838    -0.07300
N176        N  0.62087118  0.61083497  0.24696532    -0.61600
N177        N  0.56843300  0.57847277  0.12458741    -0.06200
N178        N  0.56192217  0.59251835  0.09491128    -0.58800
Mn179      Mn  0.62258002  0.57100499  0.16963580     1.20200
Mn180      Mn  0.53005889  0.54125125  0.17006706     1.10100
Cl181      Cl  0.56025931  0.50944101  0.16978661    -0.86700
C182        C  0.59370464  0.61221006  0.07504723     0.95600
C183        C  0.59581093  0.61293272  0.26484983     0.95400
C184        C  0.53322506  0.35098651  0.00232274     0.79500
N185        N  0.53058406  0.36426988  0.03713623    -0.78800
C186        C  0.52195339  0.38782925  0.03742986     0.81900
N187        N  0.51758775  0.39961226  0.00253035    -0.78800
C188        C  0.52098650  0.38712757  0.30082102     0.82000
N189        N  0.52898603  0.36309314  0.30082755    -0.80500
C190        C  0.40273795  0.48452204  0.00379604     0.79500
N191        N  0.41497862  0.48041104  0.03844170    -0.78800
C192        C  0.43924761  0.47274148  0.03835245     0.81900
N193        N  0.45196063  0.46971789  0.00335536    -0.78800
C194        C  0.44007200  0.47408929  0.30183590     0.82000
N195        N  0.41619780  0.48232766  0.30225302    -0.80500
C196        C  0.71872957  0.53494699  0.00347764     0.79500
N197        N  0.70596065  0.53823173  0.03827804    -0.78800
C198        C  0.68139498  0.54557315  0.03836703     0.81900
N199        N  0.66883402  0.54890605  0.00341518    -0.78800
C200        C  0.68126254  0.54542881  0.30174722     0.82000
N201        N  0.70559396  0.53775608  0.30192663    -0.80500
C202        C  0.58969439  0.66966923  0.00222014     0.79500
N203        N  0.59056814  0.65539492  0.03720268    -0.78800
C204        C  0.59822868  0.63101739  0.03799986     0.81900
N205        N  0.60293413  0.61904586  0.00338796    -0.78800
C206        C  0.60124686  0.63246685  0.30164985     0.82000
N207        N  0.59479132  0.65762910  0.30136532    -0.80500
C208        C  0.81445570  0.47090808  0.31148662    -0.06200
C209        C  0.82127270  0.49985814  0.00176772     0.06700
C210        C  0.85284159  0.52009536  0.02565727    -0.03600
C211        C  0.87754782  0.51142293  0.02605775    -0.01900
C212        C  0.87082544  0.48237847  0.00242190    -0.05500
C213        C  0.83931925  0.46239293  0.31149587     0.01500
C214        C  0.79484527  0.50876036  0.00200582     0.08400
C215        C  0.85967945  0.54967875  0.05017695     0.34300
C216        C  0.83186924  0.43237365  0.28730836     0.37700
C217        C  0.76466397  0.49001103  0.02772144    -0.05900
C218        C  0.73998069  0.49873819  0.02866369     0.01300
C219        C  0.74514902  0.52615291  0.00339564    -0.05500
C220        C  0.77571442  0.54510111  0.31113026    -0.01700
C221        C  0.80041285  0.53638081  0.31051044    -0.04200
C222        C  0.75892819  0.46140697  0.05295208     0.35000
C223        C  0.78250579  0.57437428  0.28628734     0.38600
C224        C  0.70883189  0.47868081  0.05501280     0.37800
C225        C  0.83170011  0.55584389  0.28432811     0.34700
C226        C  0.78145901  0.44948406  0.28777082     0.35400
C227        C  0.91039846  0.53316099  0.05002629     0.38600
N228        N  0.68414086  0.46271309  0.07623633    -0.39500
N229        N  0.75441636  0.43849835  0.07283196    -0.41000
N230        N  0.78784873  0.59769607  0.26648806    -0.38800
N231        N  0.85666346  0.57138025  0.26344896    -0.41200
N232        N  0.86516543  0.57324828  0.06981631    -0.40900
N233        N  0.93657140  0.55038081  0.06917774    -0.38600
N234        N  0.82596836  0.40848865  0.26793276    -0.39600
N235        N  0.75498172  0.43223400  0.26911735    -0.41300
C236        C  0.35519872  0.52724282  0.03092385    -0.06200
C237        C  0.32556342  0.50919028  0.00417212     0.07900
C238        C  0.32126407  0.48315049  0.31098992    -0.03600
C239        C  0.34640834  0.47505752  0.31091317    -0.01900
C240        C  0.37621729  0.49309868  0.00411210    -0.05500
C241        C  0.38043206  0.51922912  0.03104330     0.01500
C242        C  0.29886638  0.51772901  0.00410654     0.08400
C243        C  0.29056262  0.46431633  0.28374196     0.34300
C244        C  0.41101987  0.53854969  0.05847033     0.37700
C245        C  0.30795489  0.54984473  0.31911098    -0.05900
C246        C  0.28254717  0.55762519  0.31850845     0.01300
C247        C  0.24819700  0.53366006  0.00355652    -0.05500
C248        C  0.23948769  0.50189228  0.02248286    -0.01700
C249        C  0.26471150  0.49388648  0.02257320    -0.04200
C250        C  0.34349124  0.57487592  0.30114781     0.35000
C251        C  0.20421537  0.47693365  0.04106165     0.38600
C252        C  0.29202260  0.59069734  0.29982461     0.37800
C253        C  0.25562018  0.46112428  0.04172720     0.34700
C254        C  0.35968867  0.55418544  0.05830555     0.35400
C255        C  0.34059563  0.44701617  0.28434424     0.38600
N256        N  0.29963735  0.61711175  0.28493901    -0.39500
N257        N  0.37200707  0.59491568  0.28721507    -0.41000
N258        N  0.17610291  0.45711044  0.05593365    -0.38800
N259        N  0.24838134  0.43494211  0.05685400    -0.41200
N260        N  0.26600959  0.44909475  0.26210113    -0.40900
N261        N  0.33611304  0.42468925  0.26322965    -0.38600
N262        N  0.43521836  0.55387405  0.08058599    -0.39600
N263        N  0.36329761  0.57578659  0.07995751    -0.41300
C264        C  0.81420889  0.18632037  0.01414632    -0.06200
C265        C  0.84266469  0.18525068  0.00070247     0.07900
C266        C  0.83489798  0.15213655  0.32097560    -0.03600
C267        C  0.79866923  0.12020374  0.32047440    -0.01900
C268        C  0.77016877  0.12159972  0.99911929    -0.05500
C269        C  0.77803389  0.15464645  0.01316190     0.01500
C270        C  0.88015467  0.21998494  0.99772101     0.08400
C271        C  0.86429026  0.15109659  0.30765571     0.34300
C272        C  0.74877023  0.15634772  0.02546614     0.37700
C273        C  0.90529809  0.23162285  0.02904809    -0.05900
C274        C  0.93858845  0.26692808  0.02864208     0.01300
C275        C  0.94629713  0.29144635  0.99752856    -0.05500
C276        C  0.92095471  0.27894869  0.29867365    -0.01700
C277        C  0.88855513  0.24317655  0.29854289    -0.04200
C278        C  0.89627439  0.20754395  0.06230906     0.35000
C279        C  0.92666659  0.30293409  0.26656002     0.38600
C280        C  0.96481218  0.27765987  0.06026637     0.37800
C281        C  0.86308415  0.23038750  0.26556606     0.34700
C282        C  0.82225463  0.22034423  0.02832313     0.35400
C283        C  0.79082842  0.08583115  0.30833135     0.38600
N284        N  0.98567628  0.28609798  0.08552183    -0.39500
N285        N  0.88895664  0.18831292  0.08886338    -0.41000
N286        N  0.93080879  0.32174032  0.24079589    -0.38800
N287        N  0.84279075  0.22014169  0.23930092    -0.41200
N288        N  0.88778909  0.15029931  0.29706756    -0.40900
N289        N  0.78452089  0.05830908  0.29893391    -0.38600
N290        N  0.72542619  0.15769977  0.03521644    -0.39600
N291        N  0.82887355  0.24756737  0.03956974    -0.41300
C292        C  0.57753911  0.30516067  0.30708060    -0.06200
C293        C  0.56216276  0.27711567  0.00231882     0.07900
C294        C  0.53757103  0.27329996  0.03072701    -0.03600
C295        C  0.52767130  0.29701001  0.03035381    -0.01900
C296        C  0.54333799  0.32560867  0.00227198    -0.05500
C297        C  0.56857930  0.32964425  0.30729126     0.01500
C298        C  0.56949524  0.24962053  0.00013801     0.08400
C299        C  0.52196272  0.24440847  0.05992128     0.34300
C300        C  0.58604007  0.35924814  0.27886038     0.37700
C301        C  0.60017712  0.25597717  0.01929788    -0.05900
C302        C  0.60655444  0.22956822  0.01737953     0.01300
C303        C  0.58217180  0.19667827  0.99641676    -0.05500
C304        C  0.55155430  0.19046419  0.31023079    -0.01700
C305        C  0.54527755  0.21692261  0.31213107    -0.04200
C306        C  0.62499754  0.28956544  0.04117740     0.35000
C307        C  0.52578858  0.15641339  0.28946846     0.38600
C308        C  0.63869889  0.23657176  0.03614012     0.37800
C309        C  0.51355571  0.21043252  0.29282777     0.34700
C310        C  0.60210531  0.30829505  0.27723683     0.35400
C311        C  0.49990260  0.29058212  0.05764252     0.38600
N312        N  0.66430865  0.24196289  0.05092923    -0.39500
N313        N  0.64487462  0.31630961  0.05870748    -0.41000
N314        N  0.50515438  0.12929344  0.27288510    -0.38800
N315        N  0.48828240  0.20548242  0.27766314    -0.41200
N316        N  0.50962043  0.22137745  0.08319695    -0.40900
N317        N  0.47761618  0.28528462  0.07929369    -0.38600
N318        N  0.59998959  0.38272670  0.25602680    -0.39600
N319        N  0.62156223  0.31060327  0.25339948    -0.41300
C320        C  0.28666198  0.83647233  0.29798154    -0.06200
C321        C  0.26387398  0.83218664  0.99548352     0.07900
C322        C  0.27607161  0.86067604  0.02272843    -0.03600
C323        C  0.31240941  0.89230045  0.02138848    -0.01900
C324        C  0.33654580  0.89568598  0.32553810    -0.05500
C325        C  0.32291788  0.86797612  0.29618093     0.01500
C326        C  0.22901687  0.79559739  0.00233714     0.08400
C327        C  0.25124242  0.85689139  0.05260895     0.34300
C328        C  0.34634850  0.87025902  0.26537276     0.37700
C329        C  0.22924296  0.77085622  0.02681260    -0.05900
C330        C  0.19851431  0.73425507  0.02836354     0.01300
C331        C  0.16702857  0.72241308  0.00600825    -0.05500
C332        C  0.16598678  0.74783969  0.31684624    -0.01700
C333        C  0.19703235  0.78441425  0.31490497    -0.04200
C334        C  0.26171376  0.78297403  0.04941098     0.35000
C335        C  0.13302251  0.73632186  0.29584836     0.38600
C336        C  0.20033811  0.70852171  0.05106628     0.37800
C337        C  0.19656155  0.81036156  0.29102741     0.34700
C338        C  0.27322730  0.80739101  0.26908168     0.35400
C339        C  0.32465945  0.92108565  0.05023329     0.38600
N340        N  0.20193417  0.68807296  0.06909216    -0.39500
N341        N  0.28761574  0.79282325  0.06747825    -0.41000
N342        N  0.10664018  0.72705907  0.27922672    -0.38800
N343        N  0.19619097  0.83112396  0.27205003    -0.41200
N344        N  0.23122287  0.85379612  0.07620397    -0.40900
N345        N  0.33428836  0.94386254  0.07346799    -0.38600
N346        N  0.36474564  0.87183305  0.24060876    -0.39600
N347        N  0.26240879  0.78417265  0.24610603    -0.41300
C348        C  0.51628279  0.75833443  0.00912305    -0.06200
C349        C  0.55125249  0.77020846  0.99703329     0.07900
C350        C  0.57648149  0.80610644  0.31648750    -0.03600
C351        C  0.56689580  0.83008096  0.31493499    -0.01900
C352        C  0.53228903  0.81850786  0.99465415    -0.05500
C353        C  0.50681403  0.78244161  0.00794012     0.01500
C354        C  0.56139897  0.74475440  0.99837528     0.08400
C355        C  0.61236025  0.81822590  0.30394111     0.34300
C356        C  0.47042560  0.76977329  0.01897060     0.37700
C357        C  0.55512005  0.72316818  0.29848387    -0.05900
C358        C  0.56338993  0.69814765  0.29992410     0.01300
C359        C  0.58013357  0.69583676  0.00091145    -0.05500
C360        C  0.58756826  0.71891399  0.03389744    -0.01700
C361        C  0.57759112  0.74264676  0.03273409    -0.04200
C362        C  0.54038624  0.72701258  0.26232303     0.35000
C363        C  0.60633804  0.71937095  0.06893221     0.38600
C364        C  0.55304286  0.67403020  0.26605894     0.37800
C365        C  0.58437992  0.76544265  0.06681655     0.34700
C366        C  0.49005847  0.72122373  0.02257636     0.35400
C367        C  0.59291030  0.86681495  0.30030535     0.38600
N368        N  0.54467614  0.65491543  0.23892675    -0.39500
N369        N  0.52904285  0.73032929  0.23332990    -0.41000
N370        N  0.62126713  0.71991542  0.09702346    -0.38800
N371        N  0.58971988  0.78366650  0.09391465    -0.41200
N372        N  0.64096243  0.82774125  0.29404618    -0.40900
N373        N  0.61358956  0.89605363  0.28842125    -0.38600
N374        N  0.44128589  0.75956329  0.02742779    -0.39600
N375        N  0.46917461  0.69158615  0.03325218    -0.41300
C376        C  0.52292987  0.84435759  0.32837548     0.79500
N377        N  0.52124672  0.85843852  0.62719096    -0.78800
C378        C  0.51456417  0.88351222  0.62749512     0.81900
N379        N  0.51094239  0.89562837  0.66270459    -0.78800
C380        C  0.51322583  0.88210102  0.36411444     0.82000
N381        N  0.51974854  0.85687264  0.36351486    -0.80500
C382        C  0.37621869  0.92660318  0.66065810     0.79500
N383        N  0.39551495  0.94088472  0.62655562    -0.78800
C384        C  0.43202426  0.96676899  0.62748833     0.81900
N385        N  0.44970428  0.97845559  0.66296528    -0.78800
C386        C  0.43061161  0.96430554  0.36391113     0.82000
N387        N  0.39410493  0.93787324  0.36254018    -0.80500
N388        N  0.63471057  0.04684943  0.54068677    -0.06900
N389        N  0.65755542  0.06526714  0.57031220    -0.59000
N390        N  0.62129020  0.01169374  0.44904621    -0.06600
N391        N  0.63433554  0.00547556  0.41773846    -0.61100
N392        N  0.63355190  0.04596136  0.44991778    -0.06200
N393        N  0.65555014  0.06393365  0.41985203    -0.59000
N394        N  0.62235978  0.01256129  0.54167701    -0.05800
N395        N  0.63608947  0.00678648  0.57265022    -0.61500
C396        C  0.65826128  0.04005482  0.58983207     0.95300
C397        C  0.65572960  0.03844769  0.40011950     0.95100
N398        N  0.51084857  0.92536072  0.44968777    -0.07100
N399        N  0.49319176  0.90378690  0.41867747    -0.59600
N400        N  0.54532180  0.93673044  0.54134931    -0.05200
N401        N  0.55150030  0.92252089  0.57114321    -0.60800
N402        N  0.51168033  0.92639525  0.54240514    -0.07100
N403        N  0.49439225  0.90531878  0.57358629    -0.59800
N404        N  0.54450993  0.93572531  0.45056759    -0.04800
N405        N  0.55031218  0.92103517  0.42085996    -0.60900
Mn406      Mn  0.58391238  0.97360151  0.49566418     1.18400
C407        C  0.51818031  0.90114560  0.40137468     0.97400
C408        C  0.51962685  0.90306623  0.59089255     0.98000
N409        N  0.59664887  0.08527717  0.44911974    -0.07100
N410        N  0.61419223  0.10638678  0.41807961    -0.63400
N411        N  0.56361037  0.07570399  0.54053241    -0.05900
N412        N  0.55774918  0.09004847  0.57053250    -0.64100
N413        N  0.59719814  0.08590204  0.54144572    -0.06600
N414        N  0.61481797  0.10705071  0.57265894    -0.63700
N415        N  0.56301408  0.07494985  0.44985431    -0.05500
N416        N  0.55706943  0.08922146  0.41992008    -0.64400
Mn417      Mn  0.61666944  0.06712633  0.49533388     1.10700
C418        C  0.58912382  0.10868686  0.40050229     0.98600
C419        C  0.58981115  0.10949046  0.59012294     0.98700
N420        N  0.47460226  0.96598854  0.54156210    -0.06600
N421        N  0.45264507  0.94843673  0.57183661    -0.62000
N422        N  0.48587537  0.99912809  0.44961150    -0.05900
N423        N  0.47230010  0.00503774  0.41863647    -0.58700
N424        N  0.47342302  0.96479906  0.45058339    -0.07300
N425        N  0.45067414  0.94649587  0.42083417    -0.61600
N426        N  0.48689875  0.00027833  0.54194146    -0.06200
N427        N  0.47395942  0.00693345  0.57296188    -0.58800
Mn428      Mn  0.49142118  0.94443817  0.49605460     1.20200
Mn429      Mn  0.52429866  0.03809027  0.49542285     1.10100
Cl430      Cl  0.55405224  0.00579138  0.49560690    -0.86700
C431        C  0.45254380  0.97423426  0.59103632     0.95600
C432        C  0.45016366  0.97184891  0.40134620     0.95400
C433        C  0.58812714  0.16838598  0.32916049     0.79500
N434        N  0.58953981  0.15432802  0.36389309    -0.78800
C435        C  0.59453365  0.12806477  0.36377727     0.81900
N436        N  0.59715684  0.11507852  0.32871742    -0.78800
C437        C  0.59501094  0.12851215  0.62717671     0.82000
N438        N  0.58988105  0.15468569  0.62747446    -0.80500
C439        C  0.73187695  0.08868079  0.33078540     0.79500
N440        N  0.71428672  0.07594940  0.62847401    -0.78800
C441        C  0.67813925  0.04803927  0.62718354     0.81900
N442        N  0.65929027  0.03366911  0.66163789    -0.78800
C443        C  0.67671906  0.04677164  0.36390084     0.82000
N444        N  0.71271027  0.07469328  0.36491596    -0.80500
N445        N  0.97934725  0.46316901  0.54974658    -0.06900
N446        N  0.95843443  0.44549950  0.58091036    -0.59000
N447        N  0.98801393  0.49611607  0.45829045    -0.06600
N448        N  0.97333382  0.50164739  0.42840869    -0.61100
N449        N  0.97837151  0.46274957  0.45722945    -0.06200
N450        N  0.95734417  0.44499421  0.42596365    -0.59000
N451        N  0.98898955  0.49653035  0.54895122    -0.05800
N452        N  0.97450022  0.50218728  0.57891866    -0.61500
C453        C  0.95559063  0.47025899  0.59846760     0.95300
C454        C  0.95429962  0.46963428  0.40866571     0.95100
N455        N  0.09742425  0.58640528  0.45783151    -0.07100
N456        N  0.11485439  0.60842163  0.42764356    -0.59600
N457        N  0.06378088  0.57388676  0.54954883    -0.05200
N458        N  0.05733304  0.58684531  0.58073237    -0.60800
N459        N  0.09828444  0.58691106  0.54860911    -0.07100
N460        N  0.11620036  0.60946991  0.57858794    -0.59800
N461        N  0.06292502  0.57341412  0.45728861    -0.04800
N462        N  0.05597855  0.58593319  0.42618120    -0.60900
Mn463      Mn  0.02533331  0.53553285  0.50352571     1.18400
C464        C  0.08874799  0.60781451  0.40831068     0.97400
C465        C  0.09039092  0.60919876  0.59818357     0.98000
N466        N  0.01892348  0.42695049  0.45720531    -0.07100
N467        N  0.00060987  0.40420314  0.42748205    -0.63400
N468        N  0.05484940  0.44066635  0.54822823    -0.05900
N469        N  0.06190227  0.42809720  0.57922562    -0.64100
N470        N  0.02040419  0.42786032  0.54798034    -0.06600
N471        N  0.00312779  0.40593819  0.57826462    -0.63700
N472        N  0.05342786  0.44002077  0.45576004    -0.05500
N473        N  0.05944534  0.42686708  0.42437526    -0.64400
Mn474      Mn  0.99809481  0.44396778  0.50306846     1.10700
C475        C  0.02611905  0.40433408  0.40742022     0.98600
C476        C  0.02924071  0.40637446  0.59736083     0.98700
N477        N  0.13912780  0.55119403  0.54850591    -0.06600
N478        N  0.16015676  0.56886595  0.57979112    -0.62000
N479        N  0.12864351  0.51769420  0.45649026    -0.05900
N480        N  0.14323898  0.51217302  0.42651353    -0.58700
N481        N  0.13846582  0.55113516  0.45599369    -0.07300
N482        N  0.15958443  0.56897490  0.42499659    -0.61600
N483        N  0.12962012  0.51787879  0.54719692    -0.06200
N484        N  0.14437511  0.51230699  0.57697789    -0.58800
Mn485      Mn  0.11951636  0.57015202  0.50276991     1.20200
Mn486      Mn  0.09223692  0.47851423  0.50182529     1.10100
Cl487      Cl  0.05880463  0.50704723  0.50278005    -0.86700
C488        C  0.16335746  0.54425345  0.59686875     0.95600
C489        C  0.16237133  0.54424257  0.40723424     0.95400
C490        C  0.22158310  0.54186748  0.33641303     0.79500
N491        N  0.20822390  0.54385053  0.63453983    -0.78800
C492        C  0.18248055  0.54962861  0.63399987     0.81900
N493        N  0.16925764  0.55236550  0.33544775    -0.78800
C494        C  0.18211183  0.54986568  0.37065894     0.82000
N495        N  0.20775460  0.54398504  0.37099314    -0.80500
C496        C  0.97888629  0.33049288  0.33303927     0.79500
N497        N  0.99462342  0.34960846  0.63249486    -0.78800
C498        C  0.02178246  0.38576847  0.63359791     0.81900
N499        N  0.03359528  0.40339975  0.33583801    -0.78800
C500        C  0.01830408  0.38457216  0.37006006     0.82000
N501        N  0.99032432  0.34846787  0.36846215    -0.80500
C502        C  0.89697924  0.47338745  0.33610902     0.79500
N503        N  0.91073140  0.47128172  0.63482097    -0.78800
C504        C  0.93590333  0.46474126  0.63501819     0.81900
N505        N  0.94845790  0.46162688  0.33676411    -0.78800
C506        C  0.93518334  0.46425685  0.37156096     0.82000
N507        N  0.90987771  0.47059221  0.37108702    -0.80500
C508        C  0.13585757  0.68339737  0.33828883     0.79500
N509        N  0.12232254  0.66446440  0.37261120    -0.78800
C510        C  0.09604577  0.62806290  0.37189848     0.81900
N511        N  0.08385285  0.61016581  0.33655293    -0.78800
C512        C  0.09766425  0.62890580  0.63537734     0.82000
N513        N  0.12411426  0.66537138  0.63638005    -0.80500
N514        N  0.51801312  0.42954348  0.45654015    -0.06900
N515        N  0.50089874  0.40855181  0.42502410    -0.59000
N516        N  0.55169580  0.44023889  0.54822135    -0.06600
N517        N  0.55787247  0.42603609  0.57798029    -0.61100
N518        N  0.51795644  0.42958338  0.54908991    -0.06200
N519        N  0.50055678  0.40831907  0.58009404    -0.59000
N520        N  0.55179814  0.44031004  0.45762592    -0.05800
N521        N  0.55828208  0.42649166  0.42763562    -0.61500
C522        C  0.52645180  0.40681602  0.40766767     0.95300
C523        C  0.52586894  0.40625885  0.59745162     0.95100
N524        N  0.63995958  0.55009328  0.54941766    -0.07100
N525        N  0.66122216  0.56702580  0.58079210    -0.59600
N526        N  0.62837433  0.51597849  0.45778089    -0.05200
N527        N  0.64217093  0.50925881  0.42798672    -0.60800
N528        N  0.63970676  0.54993756  0.45684973    -0.07100
N529        N  0.66106504  0.56695385  0.42580385    -0.59800
N530        N  0.62835075  0.51603082  0.54845913    -0.04800
N531        N  0.64185114  0.50917132  0.57841843    -0.60900
Mn532      Mn  0.59051863  0.47766089  0.50304041     1.18400
C533        C  0.66226166  0.54108766  0.59819774     0.97400
C534        C  0.66245788  0.54118715  0.40846469     0.98000
N535        N  0.48094058  0.46900640  0.54950531    -0.07100
N536        N  0.45983159  0.45224438  0.58080931    -0.63400
N537        N  0.49203091  0.50253741  0.45807288    -0.05900
N538        N  0.47839053  0.50914927  0.42807201    -0.64100
N539        N  0.48063212  0.46854802  0.45712664    -0.06600
N540        N  0.45937937  0.45138490  0.42586735    -0.63700
N541        N  0.49248731  0.50304712  0.54859971    -0.05500
N542        N  0.47906630  0.51004882  0.57852730    -0.64400
Mn543      Mn  0.49797116  0.44778644  0.50306543     1.10700
C544        C  0.45882362  0.47825779  0.59823364     0.98600
C545        C  0.45817559  0.47713882  0.40842609     0.98700
N546        N  0.60221930  0.58909613  0.45670517    -0.06600
N547        N  0.61929101  0.61026103  0.42552094    -0.62000
N548        N  0.56929213  0.57887320  0.54863616    -0.05900
N549        N  0.56344964  0.59309458  0.57879633    -0.58700
N550        N  0.60302490  0.58948220  0.54922292    -0.07300
N551        N  0.62075939  0.61074900  0.58034226    -0.61600
N552        N  0.56848779  0.57847735  0.45786847    -0.06200
N553        N  0.56202704  0.59259199  0.42822287    -0.58800
Mn554      Mn  0.62258802  0.57099204  0.50299429     1.20200
Mn555      Mn  0.53007055  0.54121910  0.50331177     1.10100
Cl556      Cl  0.56027787  0.50941642  0.50309573    -0.86700
C557        C  0.59385229  0.61235776  0.40844120     0.95600
C558        C  0.59566829  0.61283619  0.59816424     0.95400
C559        C  0.53320602  0.35098191  0.33551044     0.79500
N560        N  0.53059387  0.36425318  0.37035390    -0.78800
C561        C  0.52200116  0.38784335  0.37070830     0.81900
N562        N  0.51766281  0.39968571  0.33583821    -0.78800
C563        C  0.52108800  0.38713893  0.63417288     0.82000
N564        N  0.52911592  0.36312583  0.63417255    -0.80500
C565        C  0.40281904  0.48457560  0.33717518     0.79500
N566        N  0.41503315  0.48039209  0.37179463    -0.78800
C567        C  0.43925189  0.47265681  0.37165532     0.81900
N568        N  0.45194187  0.46964387  0.33663590    -0.78800
C569        C  0.44014983  0.47419778  0.63515538     0.82000
N570        N  0.41627510  0.48243855  0.63555442    -0.80500
C571        C  0.71878009  0.53503937  0.33677289     0.79500
N572        N  0.70595104  0.53824904  0.37156811    -0.78800
C573        C  0.68139480  0.54560270  0.37165285     0.81900
N574        N  0.66889064  0.54900612  0.33669394    -0.78800
C575        C  0.68113786  0.54531105  0.63515618     0.82000
N576        N  0.70546029  0.53762874  0.63530134    -0.80500
C577        C  0.58983408  0.66981729  0.33561578     0.79500
N578        N  0.59077530  0.65559046  0.37060503    -0.78800
C579        C  0.59840764  0.63118883  0.37139739     0.81900
N580        N  0.60302174  0.61915145  0.33677741    -0.78800
C581        C  0.60101431  0.63228603  0.63500075     0.82000
N582        N  0.59440412  0.65733426  0.63478213    -0.80500
C583        C  0.81441021  0.47088168  0.64476973    -0.06200
C584        C  0.82123613  0.49983728  0.33510238     0.06700
C585        C  0.85271050  0.51997141  0.35914480    -0.03600
C586        C  0.87742476  0.51130887  0.35956844    -0.01900
C587        C  0.87081844  0.48238733  0.33578299    -0.05500
C588        C  0.83926178  0.46235183  0.64479663     0.01500
C589        C  0.79480853  0.50874299  0.33530992     0.08400
C590        C  0.85947685  0.54948484  0.38374186     0.34300
C591        C  0.83181043  0.43233548  0.62060344     0.37700
C592        C  0.76445036  0.48979766  0.36077504    -0.05900
C593        C  0.73980657  0.49857685  0.36173615     0.01300
C594        C  0.74517222  0.52621255  0.33670594    -0.05500
C595        C  0.77549822  0.54487195  0.64427185    -0.01700
C596        C  0.80021827  0.53618200  0.64363690    -0.04200
C597        C  0.75849242  0.46094388  0.38572516     0.35000
C598        C  0.78214781  0.57399125  0.61925164     0.38600
C599        C  0.70850916  0.47836961  0.38786820     0.37800
C600        C  0.83138345  0.55552326  0.61727967     0.34700
C601        C  0.78141606  0.44946868  0.62104665     0.35400
C602        C  0.91017083  0.53294571  0.38371404     0.38600
N603        N  0.68370150  0.46228541  0.40892415    -0.39500
N604        N  0.75379596  0.43783157  0.40537621    -0.41000
N605        N  0.78737025  0.59718512  0.59930875    -0.38800
N606        N  0.85624753  0.57096830  0.59625830    -0.41200
N607        N  0.86491483  0.57301322  0.40342076    -0.40900
N608        N  0.93625591  0.55008619  0.40301259    -0.38600
N609        N  0.82590464  0.40845503  0.60121498    -0.39600
N610        N  0.75494382  0.43223715  0.60238219    -0.41300
C611        C  0.35536491  0.52736180  0.36439320    -0.06200
C612        C  0.32574287  0.50935750  0.33762494     0.07900
C613        C  0.32131477  0.48321865  0.64421771    -0.03600
C614        C  0.34644434  0.47510467  0.64422743    -0.01900
C615        C  0.37633376  0.49319211  0.33752932    -0.05500
C616        C  0.38056490  0.51930499  0.36450199     0.01500
C617        C  0.29905778  0.51790775  0.33759569     0.08400
C618        C  0.29062594  0.46436467  0.61695339     0.34300
C619        C  0.41113671  0.53856740  0.39195332     0.37700
C620        C  0.30788664  0.54983007  0.65211692    -0.05900
C621        C  0.28244490  0.55756666  0.65150353     0.01300
C622        C  0.24834857  0.53378732  0.33699859    -0.05500
C623        C  0.23968091  0.50205929  0.35599195    -0.01700
C624        C  0.26493054  0.49408741  0.35611828    -0.04200
C625        C  0.34337527  0.57483210  0.63404366     0.35000
C626        C  0.20443061  0.47710892  0.37461618     0.38600
C627        C  0.29180734  0.59051822  0.63260708     0.37800
C628        C  0.25590787  0.46139580  0.37539042     0.34700
C629        C  0.35987968  0.55430727  0.39178933     0.35400
C630        C  0.34055024  0.44692014  0.61784530     0.38600
N631        N  0.29932279  0.61682493  0.61753097    -0.39500
N632        N  0.37185277  0.59485780  0.62002190    -0.41000
N633        N  0.17633813  0.45728942  0.38952965    -0.38800
N634        N  0.24873763  0.43528117  0.39062675    -0.41200
N635        N  0.26608821  0.44914134  0.59529202    -0.40900
N636        N  0.33598365  0.42445893  0.59689917    -0.38600
N637        N  0.43532164  0.55384972  0.41408909    -0.39600
N638        N  0.36350409  0.57591321  0.41344568    -0.41300
C639        C  0.81401783  0.18633152  0.34738600    -0.06200
C640        C  0.84250959  0.18529764  0.33399146     0.07900
C641        C  0.83482901  0.15207707  0.65391949    -0.03600
C642        C  0.79859761  0.12014385  0.65345397    -0.01900
C643        C  0.77006297  0.12156593  0.33253578    -0.05500
C644        C  0.77786616  0.15461730  0.34645866     0.01500
C645        C  0.87997669  0.22005661  0.33098210     0.08400
C646        C  0.86419211  0.15106248  0.64041425     0.34300
C647        C  0.74856435  0.15627995  0.35870050     0.37700
C648        C  0.90522297  0.23160921  0.36218119    -0.05900
C649        C  0.93849104  0.26692910  0.36179996     0.01300
C650        C  0.94607935  0.29153041  0.33084400    -0.05500
C651        C  0.92093311  0.27889438  0.63185729    -0.01700
C652        C  0.88855953  0.24310195  0.63166827    -0.04200
C653        C  0.89633773  0.20742132  0.39528411     0.35000
C654        C  0.92667358  0.30288248  0.59973298     0.38600
C655        C  0.96481257  0.27760229  0.39329142     0.37800
C656        C  0.86315992  0.23029063  0.59861724     0.34700
C657        C  0.82200148  0.22035544  0.36146308     0.35400
C658        C  0.79073619  0.08578071  0.64122647     0.38600
N659        N  0.98575503  0.28599981  0.41844213    -0.39500
N660        N  0.88913457  0.18809759  0.42170642    -0.41000
N661        N  0.93083901  0.32169117  0.57395972    -0.38800
N662        N  0.84292865  0.22002278  0.57228679    -0.41200
N663        N  0.88766641  0.15028733  0.62966625    -0.40900
N664        N  0.78441636  0.05826561  0.63177073    -0.38600
N665        N  0.72519470  0.15760779  0.36840374    -0.39600
N666        N  0.82856853  0.24757831  0.37262632    -0.41300
C667        C  0.57772757  0.30524417  0.64059511    -0.06200
C668        C  0.56220967  0.27714173  0.33542163     0.07900
C669        C  0.53782116  0.27346894  0.36402074    -0.03600
C670        C  0.52785858  0.29712893  0.36364461    -0.01900
C671        C  0.54330717  0.32558358  0.33539426    -0.05500
C672        C  0.56882230  0.32977054  0.64084672     0.01500
C673        C  0.56954322  0.24964479  0.33324949     0.08400
C674        C  0.52248629  0.24477136  0.39342550     0.34300
C675        C  0.58656632  0.35960191  0.61270076     0.37700
C676        C  0.60029896  0.25605669  0.35228505    -0.05900
C677        C  0.60664473  0.22962206  0.35041378     0.01300
C678        C  0.58216537  0.19666051  0.32961552    -0.05500
C679        C  0.55150408  0.19036233  0.64339976    -0.01700
C680        C  0.54523179  0.21682329  0.64527363    -0.04200
C681        C  0.62521525  0.28971422  0.37401245     0.35000
C682        C  0.52579023  0.15634728  0.62254952     0.38600
C683        C  0.63884094  0.23665602  0.36906739     0.37800
C684        C  0.51358376  0.21038059  0.62583045     0.34700
C685        C  0.60254896  0.30857485  0.61097360     0.35400
C686        C  0.50023648  0.29077842  0.39111745     0.38600
N687        N  0.66448824  0.24206420  0.38377149    -0.39500
N688        N  0.64517235  0.31650753  0.39143103    -0.41000
N689        N  0.50519977  0.12925498  0.60589801    -0.38800
N690        N  0.48836459  0.20545544  0.61054909    -0.41200
N691        N  0.51037205  0.22189883  0.41687124    -0.40900
N692        N  0.47806263  0.28553248  0.41291724    -0.38600
N693        N  0.60074532  0.38326650  0.59009747    -0.39600
N694        N  0.62221116  0.31103610  0.58731689    -0.41300
C695        C  0.28665791  0.83643887  0.63158234    -0.06200
C696        C  0.26373303  0.83226843  0.32882588     0.07900
C697        C  0.27599394  0.86080321  0.35602569    -0.03600
C698        C  0.31235689  0.89237799  0.35464923    -0.01900
C699        C  0.33662794  0.89561097  0.65913987    -0.05500
C700        C  0.32294122  0.86789589  0.62977852     0.01500
C701        C  0.22887453  0.79570129  0.33575525     0.08400
C702        C  0.25120739  0.85711797  0.38589770     0.34300
C703        C  0.34633460  0.87012502  0.59895813     0.37700
C704        C  0.22912609  0.77097944  0.36023802    -0.05900
C705        C  0.19842660  0.73436202  0.36176632     0.01300
C706        C  0.16693250  0.72249169  0.33940977    -0.05500
C707        C  0.16609396  0.74781349  0.65010279    -0.01700
C708        C  0.19712303  0.78440472  0.64827168    -0.04200
C709        C  0.26160989  0.78312858  0.38283007     0.35000
C710        C  0.13325497  0.73625647  0.62878670     0.38600
C711        C  0.20030343  0.70863890  0.38441590     0.37800
C712        C  0.19673871  0.81033950  0.62426009     0.34700
C713        C  0.27315178  0.80736719  0.60264928     0.35400
C714        C  0.32469808  0.92118164  0.38349980     0.38600
N715        N  0.20195015  0.68819985  0.40239070    -0.39500
N716        N  0.28752750  0.79301019  0.40088448    -0.41000
N717        N  0.10697764  0.72695787  0.61189500    -0.38800
N718        N  0.19643128  0.83108947  0.60517827    -0.41200
N719        N  0.23122677  0.85411484  0.40948414    -0.40900
N720        N  0.33440942  0.94397064  0.40674486    -0.38600
N721        N  0.36469814  0.87164865  0.57418554    -0.39600
N722        N  0.26226658  0.78415354  0.57965032    -0.41300
C723        C  0.51627289  0.75835409  0.34244998    -0.06200
C724        C  0.55128766  0.77029206  0.33045666     0.07900
C725        C  0.57589759  0.80552370  0.64939152    -0.03600
C726        C  0.56642776  0.82959252  0.64777958    -0.01900
C727        C  0.53220860  0.81849777  0.32797406    -0.05500
C728        C  0.50674772  0.78241526  0.34121552     0.01500
C729        C  0.56147644  0.74486881  0.33178734     0.08400
C730        C  0.61153621  0.81733652  0.63626739     0.34300
C731        C  0.47032054  0.76968796  0.35215140     0.37700
C732        C  0.55452287  0.72268854  0.63204658    -0.05900
C733        C  0.56288015  0.69773370  0.63343100     0.01300
C734        C  0.58026582  0.69598618  0.33430830    -0.05500
C735        C  0.58771389  0.71908146  0.36728394    -0.01700
C736        C  0.57773917  0.74281831  0.36611451    -0.04200
C737        C  0.53961011  0.72640817  0.59596060     0.35000
C738        C  0.60647392  0.71953904  0.40232728     0.38600
C739        C  0.55272356  0.67377387  0.59945411     0.37800
C740        C  0.58461597  0.76569180  0.40015060     0.34700
C741        C  0.49007568  0.72124205  0.35591145     0.35400
C742        C  0.59232634  0.86610883  0.63252620     0.38600
N743        N  0.54452713  0.65480429  0.57221883    -0.39500
N744        N  0.52808366  0.72959339  0.56703918    -0.41000
N745        N  0.62138533  0.72008299  0.43043520    -0.38800
N746        N  0.59003642  0.78399337  0.42719926    -0.41200
N747        N  0.63994304  0.82660601  0.62589941    -0.40900
N748        N  0.61291531  0.89516917  0.62014267    -0.38600
N749        N  0.44115335  0.75943930  0.36053149    -0.39600
N750        N  0.46921080  0.69160937  0.36661197    -0.41300
C751        C  0.52286848  0.84432103  0.66177857     0.79500
N752        N  0.52143699  0.85852694  0.96048512    -0.78800
C753        C  0.51468976  0.88354999  0.96079683     0.81900
N754        N  0.51100933  0.89561813  0.99600559    -0.78800
C755        C  0.51336029  0.88222184  0.69750448     0.82000
N756        N  0.51980663  0.85693555  0.69691416    -0.80500
C757        C  0.37622286  0.92674610  0.99391241     0.79500
N758        N  0.39557970  0.94105697  0.95984826    -0.78800
C759        C  0.43208953  0.96692458  0.96084645     0.81900
N760        N  0.44971038  0.97857350  0.99635505    -0.78800
C761        C  0.43073498  0.96435944  0.69734377     0.82000
N762        N  0.39423968  0.93786984  0.69603534    -0.80500
N763        N  0.63487514  0.04701302  0.87407635    -0.06900
N764        N  0.65771984  0.06543271  0.90370166    -0.59000
N765        N  0.62142718  0.01183003  0.78244120    -0.06600
N766        N  0.63441021  0.00557590  0.75110279    -0.61100
N767        N  0.63369072  0.04609850  0.78329350    -0.06200
N768        N  0.65563167  0.06403631  0.75317510    -0.59000
N769        N  0.62252191  0.01272344  0.87507090    -0.05800
N770        N  0.63625003  0.00695074  0.90604646    -0.61500
C771        C  0.65842339  0.04022012  0.92322430     0.95300
C772        C  0.65576991  0.03852548  0.73343684     0.95100
N773        N  0.51101496  0.92550610  0.78308933    -0.07100
N774        N  0.49335646  0.90393470  0.75207690    -0.59600
N775        N  0.54548859  0.93686499  0.87473795    -0.05200
N776        N  0.55165003  0.92260735  0.90449233    -0.60800
N777        N  0.51184872  0.92653206  0.87579911    -0.07100
N778        N  0.49454285  0.90541074  0.90694335    -0.59800
N779        N  0.54467670  0.93587136  0.78395979    -0.04800
N780        N  0.55047736  0.92118523  0.75424250    -0.60900
Mn781      Mn  0.58407464  0.97375102  0.82906260     1.18400
C782        C  0.51834298  0.90129663  0.73475897     0.97400
C783        C  0.51976556  0.90312766  0.92421993     0.98000
N784        N  0.59677539  0.08539894  0.78250710    -0.07100
N785        N  0.61427191  0.10643637  0.75140654    -0.63400
N786        N  0.56377336  0.07587509  0.87394990    -0.05900
N787        N  0.55791632  0.09023379  0.90394098    -0.64100
N788        N  0.59736603  0.08608426  0.87485496    -0.06600
N789        N  0.61499029  0.10725441  0.90605751    -0.63700
N790        N  0.56313846  0.07506301  0.78326589    -0.05500
N791        N  0.55714315  0.08925364  0.75329112    -0.64400
Mn792      Mn  0.61682627  0.06728424  0.82872631     1.10700
C793        C  0.58916701  0.10867623  0.73381928     0.98600
C794        C  0.58998462  0.10970094  0.92352097     0.98700
N795        N  0.47477461  0.96614184  0.87500712    -0.06600
N796        N  0.45279239  0.94859189  0.90526718    -0.62000
N797        N  0.48602580  0.99925660  0.78303547    -0.05900
N798        N  0.47245327  0.00514966  0.75204065    -0.58700
N799        N  0.47358753  0.96493282  0.78401961    -0.07300
N800        N  0.45085341  0.94661648  0.75426592    -0.61600
N801        N  0.48706440  0.00043019  0.87537320    -0.06200
N802        N  0.47409499  0.00708514  0.90636280    -0.58800
Mn803      Mn  0.49159110  0.94458423  0.82947921     1.20200
Mn804      Mn  0.52445094  0.03823220  0.82884858     1.10100
Cl805      Cl  0.55421353  0.00594086  0.82902497    -0.86700
C806        C  0.45266976  0.97438958  0.92443991     0.95600
C807        C  0.45033852  0.97195447  0.73475330     0.95400
C808        C  0.58801383  0.16824577  0.66245353     0.79500
N809        N  0.58950583  0.15424345  0.69718554    -0.78800
C810        C  0.59451593  0.12799398  0.69707090     0.81900
N811        N  0.59705983  0.11495008  0.66201062    -0.78800
C812        C  0.59517357  0.12870988  0.96059630     0.82000
N813        N  0.59003360  0.15487943  0.96092448    -0.80500
C814        C  0.73181987  0.08861408  0.66396319     0.79500
N815        N  0.71443913  0.07612101  0.96188717    -0.78800
C816        C  0.67829618  0.04819895  0.96057655     0.81900
N817        N  0.65944304  0.03377468  0.99501829    -0.78800
C818        C  0.67669081  0.04679678  0.69717204     0.82000
N819        N  0.71269579  0.07467319  0.69812494    -0.80500
N820        N  0.97931878  0.46307660  0.88307048    -0.06900
N821        N  0.95840237  0.44540850  0.91423160    -0.59000
N822        N  0.98795224  0.49601208  0.79161969    -0.06600
N823        N  0.97323251  0.50152965  0.76176963    -0.61100
N824        N  0.97830833  0.46264444  0.79056111    -0.06200
N825        N  0.95724118  0.44487670  0.75932154    -0.59000
N826        N  0.98894852  0.49643308  0.88226053    -0.05800
N827        N  0.97444810  0.50208870  0.91221406    -0.61500
C828        C  0.95554304  0.47016471  0.93176788     0.95300
C829        C  0.95416926  0.46950799  0.74204438     0.95100
N830        N  0.09737738  0.58632927  0.79115980    -0.07100
N831        N  0.11481717  0.60836874  0.76099167    -0.59600
N832        N  0.06372108  0.57379397  0.88286411    -0.05200
N833        N  0.05727004  0.58675747  0.91404086    -0.60800
N834        N  0.09822492  0.58681972  0.88192902    -0.07100
N835        N  0.11613835  0.60938434  0.91190245    -0.59800
N836        N  0.06287573  0.57333004  0.79060643    -0.04800
N837        N  0.05593810  0.58586806  0.75950971    -0.60900
Mn838      Mn  0.02528225  0.53543727  0.83684005     1.18400
C839        C  0.08871582  0.60776947  0.74165904     0.97400
C840        C  0.09032762  0.60911397  0.93149213     0.98000
N841        N  0.01889605  0.42687248  0.79052441    -0.07100
N842        N  0.00057738  0.40413182  0.76079786    -0.63400
N843        N  0.05485609  0.44060271  0.88153506    -0.05900
N844        N  0.06194652  0.42806736  0.91253327    -0.64100
N845        N  0.02040665  0.42778387  0.88131717    -0.06600
N846        N  0.00316537  0.40588364  0.91163091    -0.63700
N847        N  0.05340439  0.43995711  0.78905859    -0.05500
N848        N  0.05941741  0.42681848  0.75765416    -0.64400
Mn849      Mn  0.99806571  0.44387639  0.83639859     1.10700
C850        C  0.02608524  0.40427999  0.74071015     0.98600
C851        C  0.02930653  0.40634994  0.93070892     0.98700
N852        N  0.13909207  0.55112608  0.88183149    -0.06600
N853        N  0.16010295  0.56879270  0.91313041    -0.62000
N854        N  0.12862791  0.51764471  0.78979760    -0.05900
N855        N  0.14323601  0.51213882  0.75982048    -0.58700
N856        N  0.13844122  0.55108232  0.78931232    -0.07300
N857        N  0.15956286  0.56893359  0.75832058    -0.61600
N858        N  0.12960325  0.51781821  0.88051100    -0.06200
N859        N  0.14435421  0.51224753  0.91029909    -0.58800
Mn860      Mn  0.11947237  0.57007737  0.83609386     1.20200
Mn861      Mn  0.09222299  0.47845382  0.83512741     1.10100
Cl862      Cl  0.05876912  0.50696610  0.83609536    -0.86700
C863        C  0.16331396  0.54418634  0.93020688     0.95600
C864        C  0.16236717  0.54421462  0.74055233     0.95400
C865        C  0.22154179  0.54186247  0.66963244     0.79500
N866        N  0.20815343  0.54375651  0.96791082    -0.78800
C867        C  0.18242944  0.54956170  0.96734967     0.81900
N868        N  0.16921799  0.55236492  0.66876643    -0.78800
C869        C  0.18208796  0.54984490  0.70395493     0.82000
N870        N  0.20773067  0.54396154  0.70424009    -0.80500
C871        C  0.97881196  0.33045556  0.66630448     0.79500
N872        N  0.99484363  0.34959713  0.96589535    -0.78800
C873        C  0.02190951  0.38578264  0.96697059     0.81900
N874        N  0.03358470  0.40334702  0.66912862    -0.78800
C875        C  0.01825770  0.38452001  0.70334326     0.82000
N876        N  0.99024577  0.34842570  0.70173119    -0.80500
C877        C  0.89690119  0.47331965  0.66944849     0.79500
N878        N  0.91072220  0.47123215  0.96812993    -0.78800
C879        C  0.93587513  0.46466624  0.96832153     0.81900
N880        N  0.94836641  0.46154153  0.67014060    -0.78800
C881        C  0.93506247  0.46414353  0.70493020     0.82000
N882        N  0.90976670  0.47049548  0.70443908    -0.80500
C883        C  0.13588218  0.68337893  0.67167521     0.79500
N884        N  0.12230128  0.66443326  0.70598604    -0.78800
C885        C  0.09602724  0.62803159  0.70525452     0.81900
N886        N  0.08386837  0.61014702  0.66990106    -0.78800
C887        C  0.09761420  0.62884484  0.96866868     0.82000
N888        N  0.12408392  0.66530554  0.96963369    -0.80500
N889        N  0.51793592  0.42945052  0.78987711    -0.06900
N890        N  0.50083535  0.40846172  0.75835316    -0.59000
N891        N  0.55157181  0.44009251  0.88157620    -0.06600
N892        N  0.55772164  0.42587043  0.91133575    -0.61100
N893        N  0.51783734  0.42945313  0.88242403    -0.06200
N894        N  0.50041672  0.40818679  0.91342056    -0.59000
N895        N  0.55170831  0.44018079  0.79100357    -0.05800
N896        N  0.55819506  0.42634219  0.76103934    -0.61500
C897        C  0.52638255  0.40668906  0.74104027     0.95300
C898        C  0.52570815  0.40609962  0.93078604     0.95100
N899        N  0.63991455  0.54996266  0.88275943    -0.07100
N900        N  0.66121545  0.56692138  0.91409742    -0.59600
N901        N  0.62829850  0.51582220  0.79117345    -0.05200
N902        N  0.64210057  0.50910472  0.76138458    -0.60800
N903        N  0.63963315  0.54978100  0.79023880    -0.07100
N904        N  0.66099874  0.56680283  0.75920584    -0.59800
N905        N  0.62827711  0.51588972  0.88183722    -0.04800
N906        N  0.64180108  0.50904955  0.91179000    -0.60900
Mn907      Mn  0.59042628  0.47751410  0.83642329     1.18400
C908        C  0.66225273  0.54099136  0.93152091     0.97400
C909        C  0.66239299  0.54103967  0.74187345     0.98000
N910        N  0.48089066  0.46893502  0.88288427    -0.07100
N911        N  0.45974625  0.45215305  0.91415960    -0.63400
N912        N  0.49200478  0.50252758  0.79150330    -0.05900
N913        N  0.47841556  0.50920532  0.76150575    -0.64100
N914        N  0.48059817  0.46853729  0.79048808    -0.06600
N915        N  0.45938585  0.45143906  0.75918307    -0.63700
N916        N  0.49249379  0.50299562  0.88203713    -0.05500
N917        N  0.47907839  0.50999315  0.91197509    -0.64400
Mn918      Mn  0.49789642  0.44770815  0.83640934     1.10700
C919        C  0.45877721  0.47817604  0.93162621     0.98600
C920        C  0.45821816  0.47723410  0.74178544     0.98700
N921        N  0.60216706  0.58894644  0.79005527    -0.06600
N922        N  0.61918124  0.61003395  0.75880358    -0.62000
N923        N  0.56934220  0.57882047  0.88203916    -0.05900
N924        N  0.56356268  0.59311786  0.91217058    -0.58700
N925        N  0.60307284  0.58942492  0.88257255    -0.07300
N926        N  0.62087132  0.61076349  0.91362627    -0.61600
N927        N  0.56845043  0.57836210  0.79128695    -0.06200
N928        N  0.56193908  0.59241812  0.76162917    -0.58800
Mn929      Mn  0.62255494  0.57086525  0.83634817     1.20200
Mn930      Mn  0.53007140  0.54116052  0.83675177     1.10100
Cl931      Cl  0.56022736  0.50931068  0.83648179    -0.86700
C932        C  0.59371440  0.61210923  0.74176009     0.95600
C933        C  0.59581767  0.61289776  0.93146441     0.95400
C934        C  0.53326513  0.35095997  0.66885530     0.79500
N935        N  0.53057092  0.36416100  0.70370809    -0.78800
C936        C  0.52197054  0.38774668  0.70406567     0.81900
N937        N  0.51768843  0.39963476  0.66919535    -0.78800
C938        C  0.52093284  0.38703186  0.96754231     0.82000
N939        N  0.52899240  0.36304396  0.96760693    -0.80500
C940        C  0.40291663  0.48473257  0.67047027     0.79500
N941        N  0.41514425  0.48058276  0.70510264    -0.78800
C942        C  0.43935174  0.47282983  0.70498370     0.81900
N943        N  0.45202625  0.46977849  0.66997008    -0.78800
C944        C  0.44006466  0.47408592  0.96852562     0.82000
N945        N  0.41613572  0.48225916  0.96889260    -0.80500
C946        C  0.71867124  0.53491259  0.67012659     0.79500
N947        N  0.70586831  0.53812503  0.70493674    -0.78800
C948        C  0.68130394  0.54546347  0.70505390     0.81900
N949        N  0.66878022  0.54887667  0.67011760    -0.78800
C950        C  0.68114796  0.54525625  0.96847089     0.82000
N951        N  0.70547312  0.53757949  0.96864185    -0.80500
C952        C  0.58938450  0.66943156  0.66906440     0.79500
N953        N  0.59042018  0.65522092  0.70401390    -0.78800
C954        C  0.59820686  0.63093873  0.70474462     0.81900
N955        N  0.60288145  0.61898866  0.67009490    -0.78800
C956        C  0.60122191  0.63240746  0.96826418     0.82000
N957        N  0.59474134  0.65755069  0.96797470    -0.80500
C958        C  0.81436581  0.47078827  0.97832407    -0.06200
C959        C  0.82120373  0.49982269  0.66836929     0.06700
C960        C  0.85269080  0.51997642  0.69238695    -0.03600
C961        C  0.87738980  0.51129517  0.69283501    -0.01900
C962        C  0.87075656  0.48234005  0.66909343    -0.05500
C963        C  0.83922806  0.46227332  0.97829760     0.01500
C964        C  0.79476279  0.50870551  0.66860335     0.08400
C965        C  0.85949106  0.54953911  0.71691704     0.34300
C966        C  0.83167925  0.43214207  0.95425218     0.37700
C967        C  0.76453721  0.48989203  0.69425598    -0.05900
C968        C  0.73985972  0.49862566  0.69521752     0.01300
C969        C  0.74507723  0.52610561  0.67002451    -0.05500
C970        C  0.77552074  0.54484881  0.97756823    -0.01700
C971        C  0.80024518  0.53616218  0.97694776    -0.04200
C972        C  0.75875769  0.46122856  0.71941368     0.35000
C973        C  0.78210917  0.57388450  0.95243986     0.38600
C974        C  0.70867755  0.47852149  0.72151917     0.37800
C975        C  0.83134424  0.55541676  0.95049359     0.34700
C976        C  0.78120633  0.44917472  0.95489348     0.35400
C977        C  0.91015575  0.53295630  0.71694432     0.38600
N978        N  0.68396290  0.46251932  0.74270826    -0.39500
N979        N  0.75420662  0.43827524  0.73924300    -0.41000
N980        N  0.78728196  0.59700946  0.93240813    -0.38800
N981        N  0.85615008  0.57079415  0.92938838    -0.41200
N982        N  0.86495053  0.57310836  0.73653509    -0.40900
N983        N  0.93625961  0.55012379  0.73620969    -0.38600
N984        N  0.82570145  0.40816959  0.93498651    -0.39600
N985        N  0.75458849  0.43176075  0.93649268    -0.41300
C986        C  0.35542196  0.52751711  0.69754358    -0.06200
C987        C  0.32579524  0.50946802  0.67078301     0.07900
C988        C  0.32109465  0.48295889  0.97758317    -0.03600
C989        C  0.34626758  0.47489930  0.97752830    -0.01900
C990        C  0.37640573  0.49332191  0.67079530    -0.05500
C991        C  0.38064274  0.51948454  0.69769151     0.01500
C992        C  0.29907496  0.51797485  0.67073070     0.08400
C993        C  0.29036769  0.46405952  0.95037058     0.34300
C994        C  0.41122492  0.53879992  0.72512393     0.37700
C995        C  0.30778511  0.54968771  0.98565188    -0.05900
C996        C  0.28239199  0.55748632  0.98506097     0.01300
C997        C  0.24831148  0.53378626  0.67014696    -0.05500
C998        C  0.23970824  0.50211226  0.68921287    -0.01700
C999        C  0.26499137  0.49418411  0.68935076    -0.04200
C1000       C  0.34332174  0.57471752  0.96769013     0.35000
C1001       C  0.20446993  0.47714719  0.70785702     0.38600
C1002       C  0.29186652  0.59055228  0.96635867     0.37800
C1003       C  0.25605396  0.46157628  0.70875354     0.34700
C1004       C  0.35990346  0.55446537  0.72490796     0.35400
C1005       C  0.34045355  0.44681810  0.95102955     0.38600
N1006       N  0.29946743  0.61695278  0.95144904    -0.39500
N1007       N  0.37183419  0.59476153  0.95375214    -0.41000
N1008       N  0.17637872  0.45731029  0.72276652    -0.38800
N1009       N  0.24895120  0.43553186  0.72410582    -0.41200
N1010       N  0.26578657  0.44878754  0.92876899    -0.40900
N1011       N  0.33596094  0.42445267  0.92997437    -0.38600
N1012       N  0.43541717  0.55412356  0.74724738    -0.39600
N1013       N  0.36348690  0.57606206  0.74654673    -0.41300
C1014       C  0.81400614  0.18623269  0.68062267    -0.06200
C1015       C  0.84247079  0.18521574  0.66708187     0.07900
C1016       C  0.83499034  0.15209525  0.98755132    -0.03600
C1017       C  0.79873620  0.12020322  0.98697850    -0.01900
C1018       C  0.77001481  0.12149282  0.66566182    -0.05500
C1019       C  0.77785023  0.15452691  0.67970624     0.01500
C1020       C  0.87994209  0.21997576  0.66411100     0.08400
C1021       C  0.86434741  0.15102176  0.97417227     0.34300
C1022       C  0.74857522  0.15618188  0.69209455     0.37700
C1023       C  0.90512914  0.23154389  0.69537729    -0.05900
C1024       C  0.93837177  0.26688582  0.69506181     0.01300
C1025       C  0.94600101  0.29148991  0.66408981    -0.05500
C1026       C  0.92128391  0.27875576  0.96522088    -0.01700
C1027       C  0.88885356  0.24300093  0.96514315    -0.04200
C1028       C  0.89621266  0.20733804  0.72847107     0.35000
C1029       C  0.92714712  0.30259802  0.93286395     0.38600
C1030       C  0.96462302  0.27757712  0.72664114     0.37800
C1031       C  0.86346061  0.23013332  0.93207648     0.34700
C1032       C  0.82202187  0.22023206  0.69484695     0.35400
C1033       C  0.79082820  0.08583670  0.97467437     0.38600
N1034       N  0.98550870  0.28599236  0.75186409    -0.39500
N1035       N  0.88898685  0.18799867  0.75488372    -0.41000
N1036       N  0.93141466  0.32128389  0.90689562    -0.38800
N1037       N  0.84322594  0.21982618  0.90574408    -0.41200
N1038       N  0.88781779  0.15019809  0.96353337    -0.40900
N1039       N  0.78446359  0.05831858  0.96514233    -0.38600
N1040       N  0.72522447  0.15749940  0.70191485    -0.39600
N1041       N  0.82861546  0.24743452  0.70613296    -0.41300
C1042       C  0.57774791  0.30531710  0.97418000    -0.06200
C1043       C  0.56209186  0.27699024  0.66867224     0.07900
C1044       C  0.53745040  0.27312441  0.69704425    -0.03600
C1045       C  0.52758503  0.29686321  0.69672434    -0.01900
C1046       C  0.54332816  0.32553731  0.66873097    -0.05500
C1047       C  0.56880930  0.32981537  0.97437543     0.01500
C1048       C  0.56943664  0.24950373  0.66648483     0.08400
C1049       C  0.52175035  0.24414628  0.72614161     0.34300
C1050       C  0.58648733  0.35958458  0.94615016     0.37700
C1051       C  0.60013812  0.25587919  0.68562229    -0.05900
C1052       C  0.60646336  0.22943004  0.68380607     0.01300
C1053       C  0.58204691  0.19651299  0.66290836    -0.05500
C1054       C  0.55163568  0.19054289  0.97690335    -0.01700
C1055       C  0.54533896  0.21698562  0.97883696    -0.04200
C1056       C  0.62503521  0.28952505  0.70737692     0.35000
C1057       C  0.52596437  0.15657136  0.95596289     0.38600
C1058       C  0.63856367  0.23639546  0.70264675     0.37800
C1059       C  0.51372543  0.21058171  0.95934703     0.34700
C1060       C  0.60255641  0.30862497  0.94455707     0.35400
C1061       C  0.49978126  0.29039551  0.72398224     0.38600
N1062       N  0.66412269  0.24173680  0.71751644    -0.39500
N1063       N  0.64499167  0.31631514  0.72480066    -0.41000
N1064       N  0.50540617  0.12951618  0.93923435    -0.38800
N1065       N  0.48854178  0.20570187  0.94402524    -0.41200
N1066       N  0.50933071  0.22103886  0.74933046    -0.40900
N1067       N  0.47746800  0.28506314  0.74561296    -0.38600
N1068       N  0.60061225  0.38319649  0.92348125    -0.39600
N1069       N  0.62221149  0.31107075  0.92090142    -0.41300
C1070       C  0.28685159  0.83646918  0.96465514    -0.06200
C1071       C  0.26377122  0.83226367  0.66246574     0.07900
C1072       C  0.27611835  0.86078077  0.68972334    -0.03600
C1073       C  0.31249102  0.89233221  0.68830143    -0.01900
C1074       C  0.33665218  0.89568917  0.99229815    -0.05500
C1075       C  0.32309396  0.86800762  0.96291461     0.01500
C1076       C  0.22886725  0.79572314  0.66936571     0.08400
C1077       C  0.25142145  0.85709626  0.71971984     0.34300
C1078       C  0.34657879  0.87036399  0.93212637     0.37700
C1079       C  0.22901726  0.77101842  0.69399333    -0.05900
C1080       C  0.19833851  0.73438643  0.69541897     0.01300
C1081       C  0.16694730  0.72248291  0.67283051    -0.05500
C1082       C  0.16611390  0.74777501  0.98343499    -0.01700
C1083       C  0.19717661  0.78434161  0.98150180    -0.04200
C1084       C  0.26138841  0.78319699  0.71683603     0.35000
C1085       C  0.13315621  0.73628125  0.96243770     0.38600
C1086       C  0.20016213  0.70867997  0.71817995     0.37800
C1087       C  0.19670684  0.81032154  0.95769063     0.34700
C1088       C  0.27347619  0.80744438  0.93569400     0.35400
C1089       C  0.32489387  0.92115776  0.71714237     0.38600
N1090       N  0.20177235  0.68825423  0.73623612    -0.39500
N1091       N  0.28721250  0.79310341  0.73509681    -0.41000
N1092       N  0.10677604  0.72702875  0.94581826    -0.38800
N1093       N  0.19632603  0.83110874  0.93877730    -0.41200
N1094       N  0.23153043  0.85409950  0.74342961    -0.40900
N1095       N  0.33466578  0.94397576  0.74036684    -0.38600
N1096       N  0.36502079  0.87199918  0.90737795    -0.39600
N1097       N  0.26270660  0.78427611  0.91266258    -0.41300
C1098       C  0.51603498  0.75826656  0.67650017    -0.06200
C1099       C  0.55082576  0.76991605  0.66397652     0.07900
C1100       C  0.57644116  0.80598743  0.98296701    -0.03600
C1101       C  0.56692360  0.83001914  0.98149952    -0.01900
C1102       C  0.53199021  0.81832578  0.66138870    -0.05500
C1103       C  0.50663764  0.78243089  0.67523569     0.01500
C1104       C  0.56088423  0.74438569  0.66535562     0.08400
C1105       C  0.61222341  0.81799149  0.97017311     0.34300
C1106       C  0.47042246  0.76997526  0.68676230     0.37700
C1107       C  0.55506547  0.72307497  0.96505923    -0.05900
C1108       C  0.56328965  0.69802131  0.96651539     0.01300
C1109       C  0.57969490  0.69551127  0.66783686    -0.05500
C1110       C  0.58696910  0.71846508  0.70090433    -0.01700
C1111       C  0.57702686  0.74222985  0.69972958    -0.04200
C1112       C  0.54039698  0.72696901  0.92887455     0.35000
C1113       C  0.60549980  0.71874076  0.73606891     0.38600
C1114       C  0.55292910  0.67389319  0.93265784     0.37800
C1115       C  0.58379436  0.76500669  0.73382443     0.34700
C1116       C  0.48991685  0.72132123  0.69048192     0.35400
C1117       C  0.59295838  0.86674035  0.96684731     0.38600
N1118       N  0.54454858  0.65476844  0.90553251    -0.39500
N1119       N  0.52910969  0.73032672  0.89986046    -0.41000
N1120       N  0.62021031  0.71912519  0.76428091    -0.38800
N1121       N  0.58911815  0.78321445  0.76093306    -0.41200
N1122       N  0.64073648  0.82740099  0.96004989    -0.40900
N1123       N  0.61365880  0.89597224  0.95495606    -0.38600
N1124       N  0.44141894  0.75993419  0.69562514    -0.39600
N1125       N  0.46912265  0.69181416  0.70158211    -0.41300
loop_ 
_geom_bond_atom_site_label_1 
_geom_bond_atom_site_label_2 
_geom_bond_distance 
_geom_bond_site_symmetry_2 
_ccdc_geom_bond_type 
C1            N6   1.358   1_556  A
C1          N752   1.356       .  A
C1          C352   1.482       .  S
N2            C3   1.357       .  A
N2          C376   1.356       .  A
C3            N4   1.358       .  A
C3           C33   1.460       .  S
N4          C380   1.359       .  A
C5            N6   1.359       .  A
C5          N754   1.359   1_554  A
C5           C32   1.463       .  S
C7            N8   1.356       .  A
C7          N387   1.359       .  A
C7          C324   1.493       .  S
N8            C9   1.354       .  A
C9           N10   1.357       .  A
C9           C56   1.458       .  S
N10         C386   1.358       .  A
C11          N12   1.358       .  A
C11         N760   1.358   1_554  A
C11          C57   1.460       .  S
N12         C757   1.359   1_554  A
N13          N14   1.318       .  A
N13          N19   1.316       .  A
N13         Mn42   2.193       .  S
N14          C21   1.349       .  A
N15          N17   1.316       .  A
N15          N16   1.324       .  A
N15         Mn31   2.210   1_545  S
N16          C22   1.353       .  A
N17          N18   1.315       .  A
N17         Mn42   2.185       .  S
N18          C22   1.348       .  A
N19          N20   1.324       .  A
N19         Mn31   2.214   1_545  S
N20          C21   1.354       .  A
C21          C66   1.462       .  S
C22          C68   1.456       .  S
N23          N29   1.316       .  A
N23          N24   1.325       .  A
N23         Mn53   2.219       .  S
N24          C32   1.355       .  A
N25          N26   1.317       .  A
N25          N27   1.316       .  A
N25         Mn31   2.188       .  S
N26          C33   1.348       .  A
N27          N28   1.324       .  A
N27         Mn53   2.215       .  S
N28          C33   1.354       .  A
N29          N30   1.317       .  A
N29         Mn31   2.191       .  S
N30          C32   1.348       .  A
Mn31        Cl55   2.548   1_565  S
N34          N35   1.323       .  A
N34          N40   1.316       .  A
N34         Mn42   2.208       .  S
N35          C43   1.352       .  A
N36          N38   1.316       .  A
N36          N37   1.316       .  A
N36         Mn54   2.187       .  S
N37          C44   1.348       .  A
N38          N39   1.323       .  A
N38         Mn42   2.206       .  S
N39          C44   1.353       .  A
N40          N41   1.317       .  A
N40         Mn54   2.187       .  S
N41          C43   1.349       .  A
Mn42        Cl55   2.548       .  S
C43          C60   1.456       .  S
C44          C62   1.454       .  S
N45          N46   1.317       .  A
N45          N51   1.316   1_565  A
N45         Mn53   2.197       .  S
N46          C56   1.350       .  A
N47          N48   1.323   1_565  A
N47          N49   1.316       .  A
N47         Mn54   2.209   1_565  S
N48          C57   1.353   1_545  A
N49          N50   1.318       .  A
N49         Mn53   2.196       .  S
N50          C57   1.350       .  A
N51          N52   1.323       .  A
N51         Mn54   2.204       .  S
N52          C56   1.352   1_545  A
Mn53        Cl55   2.548   1_565  S
Mn54        Cl55   2.548       .  S
C58          N59   1.356   1_556  A
C58         N813   1.356       .  A
C58         C303   1.479       .  S
N59          C60   1.356       .  A
C60          N61   1.357   1_554  A
N61         C812   1.357       .  A
C62          N63   1.356       .  A
C62         N436   1.357       .  A
N63         C433   1.356       .  A
C64          N69   1.354   1_556  A
C64         N815   1.357       .  A
C64         C268   1.477       .  S
N65          C66   1.359       .  A
N65         C439   1.357       .  A
C66          N67   1.359       .  A
N67         C443   1.358       .  A
C68          N69   1.354       .  A
C68         N817   1.358   1_554  A
N70          N71   1.323       .  A
N70          N76   1.315       .  A
N70         Mn99   2.210       .  S
N71          C78   1.353       .  A
N72          N74   1.316       .  A
N72          N73   1.316       .  A
N72         Mn88   2.188   1_655  S
N73          C79   1.348       .  A
N74          N75   1.323       .  A
N74         Mn99   2.209       .  S
N75          C79   1.353       .  A
N76          N77   1.316       .  A
N76         Mn88   2.182   1_655  S
N77          C78   1.348       .  A
C78         C129   1.456       .  S
C79         C131   1.457       .  S
N80          N86   1.316       .  A
N80          N81   1.315       .  A
N80        Mn110   2.186       .  S
N81          C89   1.348       .  A
N82          N83   1.322       .  A
N82          N84   1.316       .  A
N82         Mn88   2.205       .  S
N83          C90   1.352       .  A
N84          N85   1.318       .  A
N84        Mn110   2.193       .  S
N85          C90   1.350       .  A
N86          N87   1.322       .  A
N86         Mn88   2.200       .  S
N87          C89   1.351       .  A
Mn88       Cl112   2.545       .  S
C89         C135   1.452       .  S
C90         C137   1.457       .  S
N91          N92   1.318       .  A
N91          N97   1.316       .  A
N91         Mn99   2.190   1_455  S
N92         C100   1.349       .  A
N93          N95   1.316       .  A
N93          N94   1.323       .  A
N93        Mn111   2.201       .  S
N94         C101   1.352       .  A
N95          N96   1.315       .  A
N95         Mn99   2.188   1_455  S
N96         C101   1.349       .  A
N97          N98   1.323       .  A
N97        Mn111   2.214       .  S
N98         C100   1.354       .  A
Mn99       Cl112   2.546   1_655  S
C100        C125   1.460       .  S
C101        C123   1.455       .  S
N102        N103   1.323       .  A
N102        N108   1.316       .  A
N102       Mn110   2.209       .  S
N103        C113   1.353       .  A
N104        N105   1.316       .  A
N104        N106   1.316       .  A
N104       Mn111   2.184       .  S
N105        C114   1.348       .  A
N106        N107   1.324       .  A
N106       Mn110   2.213       .  S
N107        C114   1.354       .  A
N108        N109   1.317       .  A
N108       Mn111   2.191       .  S
N109        C113   1.349       .  A
Mn110      Cl112   2.546       .  S
Mn111      Cl112   2.546       .  S
C113        C117   1.458       .  S
C114        C119   1.457       .  S
C115        N120   1.356       .  A
C115        N866   1.356   1_554  A
C115        C247   1.481       .  S
N116        C117   1.358       .  A
N116        C490   1.357       .  A
C117        N493   1.358       .  A
N118        C119   1.358       .  A
N118        C867   1.358   1_554  A
C119        N120   1.356       .  A
C121        N126   1.360   1_556  A
C121        N872   1.355       .  A
C121        C275   1.498       .  S
N122        C123   1.353   1_655  A
N122        C496   1.354       .  A
C123        N499   1.357       .  A
N124        C125   1.358       .  A
N124        C873   1.357   1_554  A
C125        N126   1.359   1_455  A
C127        N132   1.357       .  A
C127        N878   1.356   1_554  A
C127        C212   1.485       .  S
N128        C129   1.357       .  A
N128        C502   1.356       .  A
C129        N505   1.358       .  A
N130        C131   1.358       .  A
N130        C879   1.358   1_554  A
C131        N132   1.356       .  A
C133        N134   1.354       .  A
C133        N888   1.357   1_554  A
C133        C331   1.479       .  S
N134        C135   1.354       .  A
C135        N136   1.357       .  A
N136        C887   1.358   1_554  A
C137        N138   1.357       .  A
C137        N511   1.358       .  A
N138        C508   1.357       .  A
N139        N140   1.324       .  A
N139        N145   1.316       .  A
N139       Mn168   2.216       .  S
N140        C147   1.355       .  A
N141        N143   1.315       .  A
N141        N142   1.316       .  A
N141       Mn157   2.188       .  S
N142        C148   1.348       .  A
N143        N144   1.323       .  A
N143       Mn168   2.204       .  S
N144        C148   1.353       .  A
N145        N146   1.315       .  A
N145       Mn157   2.181       .  S
N146        C147   1.347       .  A
C147        C186   1.457       .  S
C148        C188   1.456       .  S
N149        N155   1.316       .  A
N149        N150   1.324       .  A
N149       Mn179   2.217       .  S
N150        C158   1.355       .  A
N151        N152   1.316       .  A
N151        N153   1.316       .  A
N151       Mn157   2.188       .  S
N152        C159   1.348       .  A
N153        N154   1.323       .  A
N153       Mn179   2.205       .  S
N154        C159   1.353       .  A
N155        N156   1.316       .  A
N155       Mn157   2.183       .  S
N156        C158   1.347       .  A
Mn157      Cl181   2.545       .  S
C158        C200   1.459       .  S
C159        C198   1.456       .  S
N160        N161   1.323       .  A
N160        N166   1.316       .  A
N160       Mn168   2.214       .  S
N161        C169   1.354       .  A
N162        N164   1.316       .  A
N162        N163   1.315       .  A
N162       Mn180   2.186       .  S
N163        C170   1.348       .  A
N164        N165   1.322       .  A
N164       Mn168   2.200       .  S
N165        C170   1.352       .  A
N166        N167   1.316       .  A
N166       Mn180   2.182       .  S
N167        C169   1.347       .  A
Mn168      Cl181   2.547       .  S
C169        C194   1.456       .  S
C170        C192   1.452       .  S
N171        N172   1.324       .  A
N171        N177   1.316       .  A
N171       Mn179   2.219       .  S
N172        C182   1.355       .  A
N173        N174   1.316       .  A
N173        N175   1.316       .  A
N173       Mn180   2.192       .  S
N174        C183   1.349       .  A
N175        N176   1.323       .  A
N175       Mn179   2.202       .  S
N176        C183   1.352       .  A
N177        N178   1.317       .  A
N177       Mn180   2.185       .  S
N178        C182   1.348       .  A
Mn179      Cl181   2.546       .  S
Mn180      Cl181   2.546       .  S
C182        C204   1.460       .  S
C183        C206   1.457       .  S
C184        N185   1.357       .  A
C184        N939   1.356   1_554  A
C184        C296   1.490       .  S
N185        C186   1.357       .  A
C186        N187   1.357       .  A
N187        C938   1.358   1_554  A
C188        N189   1.356       .  A
C188        N562   1.358       .  A
N189        C559   1.356       .  A
C190        N191   1.355       .  A
C190        N945   1.358   1_554  A
C190        C240   1.487       .  S
N191        C192   1.355       .  A
C192        N193   1.357       .  A
N193        C944   1.357   1_554  A
C194        N195   1.357       .  A
C194        N568   1.357       .  A
N195        C565   1.357       .  A
C196        N197   1.357       .  A
C196        N951   1.358   1_554  A
C196        C219   1.490       .  S
N197        C198   1.357       .  A
C198        N199   1.357       .  A
N199        C950   1.357   1_554  A
C200        N201   1.357       .  A
C200        N574   1.357       .  A
N201        C571   1.358       .  A
C202        N203   1.360       .  A
C202        N957   1.356   1_554  A
C202        C359   1.507       .  S
N203        C204   1.360       .  A
C204        N205   1.357       .  A
N205        C956   1.356   1_554  A
C206        N207   1.354       .  A
C206        N580   1.356       .  A
N207        C577   1.356       .  A
C208        C213   1.411       .  A
C208        C584   1.410       .  A
C208        C226   1.451       .  S
C209        C214   1.494       .  S
C209        C210   1.410       .  A
C209        C958   1.410   1_554  A
C210        C211   1.409       .  A
C210        C215   1.451       .  S
C211        C212   1.416       .  A
C211        C227   1.452       .  S
C212        C963   1.415   1_554  A
C213        C587   1.415       .  A
C213        C216   1.451       .  S
C214        C217   1.409       .  A
C214        C971   1.410   1_554  A
C215        N232   1.157       .  T
C216        N234   1.157       .  T
C217        C218   1.410       .  A
C217        C222   1.451       .  S
C218        C219   1.418       .  A
C218        C224   1.451       .  S
C219        C970   1.417   1_554  A
C220        C221   1.411       .  A
C220        C594   1.416       .  A
C220        C223   1.451       .  S
C221        C589   1.410       .  A
C221        C225   1.451       .  S
C222        N229   1.157       .  T
C223        N230   1.157       .  T
C224        N228   1.157       .  T
C225        N231   1.157       .  T
C226        N235   1.157       .  T
C227        N233   1.157       .  T
C236        C237   1.410       .  A
C236        C241   1.410       .  A
C236        C254   1.452       .  S
C237        C242   1.494       .  S
C237        C988   1.410   1_554  A
C238        C239   1.408       .  A
C238        C612   1.410       .  A
C238        C243   1.451       .  S
C239        C615   1.415       .  A
C239        C255   1.452       .  S
C240        C241   1.418       .  A
C240        C989   1.415   1_554  A
C241        C244   1.452       .  S
C242        C249   1.411       .  A
C242        C995   1.411   1_554  A
C243        N260   1.157       .  T
C244        N262   1.158       .  T
C245        C246   1.410       .  A
C245        C617   1.411       .  A
C245        C250   1.451       .  S
C246        C622   1.412       .  A
C246        C252   1.451       .  S
C247        C248   1.414       .  A
C247        C996   1.412   1_554  A
C248        C249   1.409       .  A
C248        C251   1.451       .  S
C249        C253   1.451       .  S
C250        N257   1.157       .  T
C251        N258   1.157       .  T
C252        N256   1.157       .  T
C253        N259   1.157       .  T
C254        N263   1.157       .  T
C255        N261   1.157       .  T
C264        C265   1.411       .  A
C264        C269   1.406       .  A
C264        C282   1.452       .  S
C265        C270   1.492   1_554  S
C265       C1016   1.411   1_554  A
C266        C267   1.412       .  A
C266        C640   1.411       .  A
C266        C271   1.449       .  S
C267        C643   1.411       .  A
C267        C283   1.450       .  S
C268        C269   1.412   1_556  A
C268       C1017   1.411       .  A
C269        C272   1.452       .  S
C270        C273   1.408   1_556  A
C270       C1027   1.406       .  A
C271        N288   1.157       .  T
C272        N290   1.157       .  T
C273        C274   1.412       .  A
C273        C278   1.450       .  S
C274        C275   1.420   1_554  A
C274        C280   1.451       .  S
C275       C1026   1.424       .  A
C276        C277   1.408       .  A
C276        C650   1.424       .  A
C276        C279   1.452       .  S
C277        C645   1.406       .  A
C277        C281   1.453       .  S
C278        N285   1.157       .  T
C279        N286   1.158       .  T
C280        N284   1.157       .  T
C281        N287   1.157       .  T
C282        N291   1.157       .  T
C283        N289   1.157       .  T
C292        C297   1.410       .  A
C292        C668   1.408       .  A
C292        C310   1.452       .  S
C293        C298   1.490       .  S
C293        C294   1.408       .  A
C293       C1042   1.408   1_554  A
C294        C295   1.409       .  A
C294        C299   1.451       .  S
C295        C296   1.418       .  A
C295        C311   1.451       .  S
C296       C1047   1.420   1_554  A
C297        C671   1.420       .  A
C297        C300   1.452       .  S
C298        C301   1.410       .  A
C298       C1055   1.410   1_554  A
C299        N316   1.157       .  T
C300        N318   1.158       .  T
C301        C302   1.409       .  A
C301        C306   1.450       .  S
C302        C303   1.413   1_554  A
C302        C308   1.451       .  S
C303       C1054   1.413       .  A
C304        C305   1.408       .  A
C304        C678   1.413       .  A
C304        C307   1.451       .  S
C305        C673   1.410       .  A
C305        C309   1.451       .  S
C306        N313   1.157       .  T
C307        N314   1.157       .  T
C308        N312   1.157       .  T
C309        N315   1.157       .  T
C310        N319   1.157       .  T
C311        N317   1.157       .  T
C320        C325   1.407       .  A
C320        C696   1.407       .  A
C320        C338   1.453       .  S
C321        C326   1.489   1_556  S
C321        C322   1.406   1_556  A
C321       C1070   1.407       .  A
C322        C323   1.411       .  A
C322        C327   1.450       .  S
C323       C1074   1.419   1_554  A
C323        C339   1.450       .  S
C324        C325   1.422       .  A
C324        C698   1.419       .  A
C325        C328   1.452       .  S
C326        C329   1.410       .  A
C326       C1083   1.409   1_554  A
C327        N344   1.157       .  T
C328        N346   1.158       .  T
C329        C330   1.406       .  A
C329        C334   1.452       .  S
C330        C331   1.415       .  A
C330        C336   1.452       .  S
C331       C1082   1.413   1_554  A
C332        C333   1.410       .  A
C332        C706   1.413       .  A
C332        C335   1.450       .  S
C333        C701   1.408       .  A
C333        C337   1.449       .  S
C334        N341   1.157       .  T
C335        N342   1.157       .  T
C336        N340   1.158       .  T
C337        N343   1.157       .  T
C338        N347   1.157       .  T
C339        N345   1.157       .  T
C348        C349   1.411   1_554  A
C348        C353   1.411       .  A
C348        C366   1.451       .  S
C349        C354   1.496       .  S
C349       C1100   1.410       .  A
C350        C351   1.410       .  A
C350        C724   1.410       .  A
C350        C355   1.450       .  S
C351        C727   1.413       .  A
C351        C367   1.451       .  S
C352        C353   1.412   1_556  A
C352       C1101   1.413       .  A
C353        C356   1.450       .  S
C354        C361   1.408   1_556  A
C354       C1107   1.406       .  A
C355        N372   1.157       .  T
C356        N374   1.157       .  T
C357        C358   1.410       .  A
C357        C729   1.406       .  A
C357        C362   1.452       .  S
C358        C734   1.427       .  A
C358        C364   1.452       .  S
C359        C360   1.424       .  A
C359       C1108   1.427   1_554  A
C360        C361   1.413       .  A
C360        C363   1.451       .  S
C361        C365   1.451       .  S
C362        N369   1.157       .  T
C363        N370   1.158       .  T
C364        N368   1.158       .  T
C365        N371   1.157       .  T
C366        N375   1.157       .  T
C367        N373   1.157       .  T
C376        N381   1.358       .  A
C376        C727   1.482       .  S
N377        C751   1.356       .  A
N377        C378   1.357       .  A
C378        N379   1.358       .  A
C378        C408   1.460       .  S
N379        C755   1.359       .  A
C380        N381   1.359       .  A
C380        C407   1.463       .  S
C382        N383   1.356       .  A
C382        N762   1.359       .  A
C382        C699   1.493       .  S
N383        C384   1.354       .  A
C384        N385   1.357       .  A
C384        C431   1.457       .  S
N385        C761   1.358       .  A
C386        N387   1.358       .  A
C386        C432   1.460       .  S
N388        N389   1.318       .  A
N388        N394   1.316       .  A
N388       Mn417   2.192       .  S
N389        C396   1.349       .  A
N390        N392   1.316       .  A
N390        N391   1.324       .  A
N390       Mn406   2.210   1_545  S
N391        C397   1.353       .  A
N392        N393   1.315       .  A
N392       Mn417   2.184       .  S
N393        C397   1.348       .  A
N394        N395   1.324       .  A
N394       Mn406   2.214   1_545  S
N395        C396   1.354       .  A
C396        C441   1.462       .  S
C397        C443   1.456       .  S
N398        N404   1.316       .  A
N398        N399   1.325       .  A
N398       Mn428   2.219       .  S
N399        C407   1.355       .  A
N400        N401   1.317       .  A
N400        N402   1.316       .  A
N400       Mn406   2.188       .  S
N401        C408   1.348       .  A
N402        N403   1.324       .  A
N402       Mn428   2.215       .  S
N403        C408   1.354       .  A
N404        N405   1.317       .  A
N404       Mn406   2.191       .  S
N405        C407   1.348       .  A
Mn406      Cl430   2.548   1_565  S
N409        N410   1.322       .  A
N409        N415   1.316       .  A
N409       Mn417   2.208       .  S
N410        C418   1.352       .  A
N411        N413   1.316       .  A
N411        N412   1.316       .  A
N411       Mn429   2.187       .  S
N412        C419   1.348       .  A
N413        N414   1.322       .  A
N413       Mn417   2.205       .  S
N414        C419   1.353       .  A
N415        N416   1.317       .  A
N415       Mn429   2.187       .  S
N416        C418   1.349       .  A
Mn417      Cl430   2.547       .  S
C418        C435   1.456       .  S
C419        C437   1.454       .  S
N420        N421   1.317       .  A
N420        N426   1.316   1_565  A
N420       Mn428   2.196       .  S
N421        C431   1.350       .  A
N422        N423   1.323   1_565  A
N422        N424   1.316       .  A
N422       Mn429   2.209   1_565  S
N423        C432   1.353   1_545  A
N424        N425   1.318       .  A
N424       Mn428   2.197       .  S
N425        C432   1.350       .  A
N426        N427   1.323       .  A
N426       Mn429   2.204       .  S
N427        C431   1.352   1_545  A
Mn428      Cl430   2.548   1_565  S
Mn429      Cl430   2.548       .  S
C433        N434   1.356       .  A
C433        C678   1.478       .  S
N434        C435   1.356       .  A
C435        N436   1.357       .  A
C437        N811   1.357       .  A
C437        N438   1.356       .  A
N438        C808   1.356       .  A
C439        N444   1.354       .  A
C439        C643   1.477       .  S
N440        C814   1.357       .  A
N440        C441   1.359       .  A
C441        N442   1.359       .  A
N442        C818   1.358       .  A
C443        N444   1.355       .  A
N445        N446   1.323       .  A
N445        N451   1.315       .  A
N445       Mn474   2.210       .  S
N446        C453   1.353       .  A
N447        N449   1.316       .  A
N447        N448   1.316       .  A
N447       Mn463   2.187   1_655  S
N448        C454   1.348       .  A
N449        N450   1.323       .  A
N449       Mn474   2.209       .  S
N450        C454   1.353       .  A
N451        N452   1.316       .  A
N451       Mn463   2.182   1_655  S
N452        C453   1.348       .  A
C453        C504   1.456       .  S
C454        C506   1.457       .  S
N455        N461   1.316       .  A
N455        N456   1.315       .  A
N455       Mn485   2.186       .  S
N456        C464   1.348       .  A
N457        N458   1.322       .  A
N457        N459   1.316       .  A
N457       Mn463   2.205       .  S
N458        C465   1.352       .  A
N459        N460   1.318       .  A
N459       Mn485   2.193       .  S
N460        C465   1.350       .  A
N461        N462   1.322       .  A
N461       Mn463   2.201       .  S
N462        C464   1.352       .  A
Mn463      Cl487   2.545       .  S
C464        C510   1.452       .  S
C465        C512   1.457       .  S
N466        N467   1.317       .  A
N466        N472   1.316       .  A
N466       Mn474   2.189   1_455  S
N467        C475   1.349       .  A
N468        N470   1.316       .  A
N468        N469   1.323       .  A
N468       Mn486   2.201       .  S
N469        C476   1.352       .  A
N470        N471   1.315       .  A
N470       Mn474   2.188   1_455  S
N471        C476   1.349       .  A
N472        N473   1.323       .  A
N472       Mn486   2.213       .  S
N473        C475   1.354       .  A
Mn474      Cl487   2.546   1_655  S
C475        C500   1.460       .  S
C476        C498   1.455       .  S
N477        N478   1.323       .  A
N477        N483   1.316       .  A
N477       Mn485   2.208       .  S
N478        C488   1.353       .  A
N479        N480   1.316       .  A
N479        N481   1.316       .  A
N479       Mn486   2.184       .  S
N480        C489   1.348       .  A
N481        N482   1.324       .  A
N481       Mn485   2.213       .  S
N482        C489   1.354       .  A
N483        N484   1.317       .  A
N483       Mn486   2.191       .  S
N484        C488   1.349       .  A
Mn485      Cl487   2.546       .  S
Mn486      Cl487   2.546       .  S
C488        C492   1.458       .  S
C489        C494   1.457       .  S
C490        N495   1.356       .  A
C490        C622   1.481       .  S
N491        C865   1.356       .  A
N491        C492   1.357       .  A
C492        N868   1.358       .  A
N493        C494   1.358       .  A
C494        N495   1.356       .  A
C496        N501   1.360       .  A
C496        C650   1.498       .  S
N497        C871   1.354       .  A
N497        C498   1.353   1_655  A
C498        N874   1.357       .  A
N499        C500   1.358       .  A
C500        N501   1.359   1_455  A
C502        N507   1.357       .  A
C502        C587   1.486       .  S
N503        C877   1.356       .  A
N503        C504   1.357       .  A
C504        N880   1.358       .  A
N505        C506   1.358       .  A
C506        N507   1.356       .  A
C508        N509   1.354       .  A
C508        C706   1.479       .  S
N509        C510   1.354       .  A
C510        N511   1.357       .  A
C512        N886   1.358       .  A
C512        N513   1.357       .  A
N513        C883   1.357       .  A
N514        N515   1.324       .  A
N514        N520   1.316       .  A
N514       Mn543   2.216       .  S
N515        C522   1.355       .  A
N516        N518   1.315       .  A
N516        N517   1.316       .  A
N516       Mn532   2.188       .  S
N517        C523   1.348       .  A
N518        N519   1.323       .  A
N518       Mn543   2.204       .  S
N519        C523   1.353       .  A
N520        N521   1.316       .  A
N520       Mn532   2.181       .  S
N521        C522   1.347       .  A
C522        C561   1.457       .  S
C523        C563   1.456       .  S
N524        N530   1.316       .  A
N524        N525   1.324       .  A
N524       Mn554   2.217       .  S
N525        C533   1.355       .  A
N526        N527   1.316       .  A
N526        N528   1.316       .  A
N526       Mn532   2.188       .  S
N527        C534   1.348       .  A
N528        N529   1.323       .  A
N528       Mn554   2.205       .  S
N529        C534   1.353       .  A
N530        N531   1.316       .  A
N530       Mn532   2.182       .  S
N531        C533   1.347       .  A
Mn532      Cl556   2.545       .  S
C533        C575   1.458       .  S
C534        C573   1.456       .  S
N535        N536   1.323       .  A
N535        N541   1.316       .  A
N535       Mn543   2.214       .  S
N536        C544   1.354       .  A
N537        N539   1.316       .  A
N537        N538   1.315       .  A
N537       Mn555   2.186       .  S
N538        C545   1.347       .  A
N539        N540   1.322       .  A
N539       Mn543   2.201       .  S
N540        C545   1.352       .  A
N541        N542   1.316       .  A
N541       Mn555   2.182       .  S
N542        C544   1.347       .  A
Mn543      Cl556   2.547       .  S
C544        C569   1.457       .  S
C545        C567   1.452       .  S
N546        N547   1.324       .  A
N546        N552   1.316       .  A
N546       Mn554   2.219       .  S
N547        C557   1.355       .  A
N548        N549   1.316       .  A
N548        N550   1.316       .  A
N548       Mn555   2.191       .  S
N549        C558   1.349       .  A
N550        N551   1.323       .  A
N550       Mn554   2.202       .  S
N551        C558   1.352       .  A
N552        N553   1.317       .  A
N552       Mn555   2.185       .  S
N553        C557   1.348       .  A
Mn554      Cl556   2.546       .  S
Mn555      Cl556   2.546       .  S
C557        C579   1.460       .  S
C558        C581   1.456       .  S
C559        N560   1.357       .  A
C559        C671   1.491       .  S
N560        C561   1.357       .  A
C561        N562   1.357       .  A
C563        N937   1.358       .  A
C563        N564   1.356       .  A
N564        C934   1.356       .  A
C565        N566   1.355       .  A
C565        C615   1.487       .  S
N566        C567   1.355       .  A
C567        N568   1.357       .  A
C569        N943   1.357       .  A
C569        N570   1.357       .  A
N570        C940   1.358       .  A
C571        N572   1.357       .  A
C571        C594   1.490       .  S
N572        C573   1.357       .  A
C573        N574   1.357       .  A
C575        N949   1.357       .  A
C575        N576   1.357       .  A
N576        C946   1.358       .  A
C577        N578   1.360       .  A
C577        C734   1.507       .  S
N578        C579   1.360       .  A
C579        N580   1.357       .  A
C581        N955   1.356       .  A
C581        N582   1.354       .  A
N582        C952   1.356       .  A
C583        C959   1.410       .  A
C583        C588   1.411       .  A
C583        C601   1.451       .  S
C584        C589   1.494       .  S
C584        C585   1.410       .  A
C585        C586   1.409       .  A
C585        C590   1.451       .  S
C586        C587   1.416       .  A
C586        C602   1.452       .  S
C588        C962   1.415       .  A
C588        C591   1.451       .  S
C589        C592   1.409       .  A
C590        N607   1.157       .  T
C591        N609   1.157       .  T
C592        C593   1.410       .  A
C592        C597   1.451       .  S
C593        C594   1.418       .  A
C593        C599   1.451       .  S
C595        C969   1.416       .  A
C595        C596   1.410       .  A
C595        C598   1.451       .  S
C596        C964   1.410       .  A
C596        C600   1.451       .  S
C597        N604   1.157       .  T
C598        N605   1.157       .  T
C599        N603   1.157       .  T
C600        N606   1.157       .  T
C601        N610   1.157       .  T
C602        N608   1.157       .  T
C611        C612   1.410       .  A
C611        C616   1.410       .  A
C611        C629   1.452       .  S
C612        C617   1.493       .  S
C613        C987   1.410       .  A
C613        C614   1.409       .  A
C613        C618   1.451       .  S
C614        C990   1.415       .  A
C614        C630   1.452       .  S
C615        C616   1.418       .  A
C616        C619   1.452       .  S
C617        C624   1.411       .  A
C618        N635   1.157       .  T
C619        N637   1.158       .  T
C620        C992   1.411       .  A
C620        C621   1.410       .  A
C620        C625   1.451       .  S
C621        C997   1.412       .  A
C621        C627   1.451       .  S
C622        C623   1.414       .  A
C623        C624   1.409       .  A
C623        C626   1.451       .  S
C624        C628   1.451       .  S
C625        N632   1.157       .  T
C626        N633   1.157       .  T
C627        N631   1.157       .  T
C628        N634   1.157       .  T
C629        N638   1.157       .  T
C630        N636   1.157       .  T
C639        C640   1.411       .  A
C639        C644   1.406       .  A
C639        C657   1.452       .  S
C640        C645   1.492       .  S
C641       C1015   1.411       .  A
C641        C642   1.412       .  A
C641        C646   1.449       .  S
C642       C1018   1.411       .  A
C642        C658   1.450       .  S
C643        C644   1.412       .  A
C644        C647   1.452       .  S
C645        C648   1.408       .  A
C646        N663   1.157       .  T
C647        N665   1.157       .  T
C648        C649   1.412       .  A
C648        C653   1.450       .  S
C649        C650   1.420       .  A
C649        C655   1.451       .  S
C651       C1025   1.424       .  A
C651        C652   1.408       .  A
C651        C654   1.452       .  S
C652       C1020   1.406       .  A
C652        C656   1.453       .  S
C653        N660   1.157       .  T
C654        N661   1.158       .  T
C655        N659   1.157       .  T
C656        N662   1.157       .  T
C657        N666   1.157       .  T
C658        N664   1.157       .  T
C667       C1043   1.408       .  A
C667        C672   1.410       .  A
C667        C685   1.452       .  S
C668        C673   1.490       .  S
C668        C669   1.408       .  A
C669        C670   1.409       .  A
C669        C674   1.451       .  S
C670        C671   1.418       .  A
C670        C686   1.451       .  S
C672       C1046   1.420       .  A
C672        C675   1.451       .  S
C673        C676   1.410       .  A
C674        N691   1.157       .  T
C675        N693   1.158       .  T
C676        C677   1.409       .  A
C676        C681   1.450       .  S
C677        C678   1.413       .  A
C677        C683   1.451       .  S
C679       C1053   1.413       .  A
C679        C680   1.408       .  A
C679        C682   1.451       .  S
C680       C1048   1.410       .  A
C680        C684   1.451       .  S
C681        N688   1.157       .  T
C682        N689   1.157       .  T
C683        N687   1.157       .  T
C684        N690   1.157       .  T
C685        N694   1.157       .  T
C686        N692   1.157       .  T
C695       C1071   1.407       .  A
C695        C700   1.407       .  A
C695        C713   1.453       .  S
C696        C701   1.489       .  S
C696        C697   1.406       .  A
C697        C698   1.411       .  A
C697        C702   1.450       .  S
C698        C714   1.450       .  S
C699       C1073   1.419       .  A
C699        C700   1.422       .  A
C700        C703   1.452       .  S
C701        C704   1.410       .  A
C702        N719   1.157       .  T
C703        N721   1.158       .  T
C704        C705   1.406       .  A
C704        C709   1.452       .  S
C705        C706   1.415       .  A
C705        C711   1.452       .  S
C707       C1081   1.413       .  A
C707        C708   1.410       .  A
C707        C710   1.450       .  S
C708       C1076   1.409       .  A
C708        C712   1.449       .  S
C709        N716   1.157       .  T
C710        N717   1.157       .  T
C711        N715   1.157       .  T
C712        N718   1.157       .  T
C713        N722   1.157       .  T
C714        N720   1.157       .  T
C723        C724   1.412       .  A
C723        C728   1.411       .  A
C723        C741   1.450       .  S
C724        C729   1.496       .  S
C725       C1099   1.410       .  A
C725        C726   1.410       .  A
C725        C730   1.450       .  S
C726       C1102   1.413       .  A
C726        C742   1.451       .  S
C727        C728   1.412       .  A
C728        C731   1.450       .  S
C729        C736   1.407       .  A
C730        N747   1.157       .  T
C731        N749   1.157       .  T
C732       C1104   1.406       .  A
C732        C733   1.410       .  A
C732        C737   1.452       .  S
C733       C1109   1.427       .  A
C733        C739   1.452       .  S
C734        C735   1.424       .  A
C735        C736   1.413       .  A
C735        C738   1.451       .  S
C736        C740   1.451       .  S
C737        N744   1.157       .  T
C738        N745   1.158       .  T
C739        N743   1.158       .  T
C740        N746   1.157       .  T
C741        N750   1.157       .  T
C742        N748   1.157       .  T
C751        N756   1.358       .  A
C751       C1102   1.483       .  S
N752        C753   1.357       .  A
C753        N754   1.358       .  A
C753        C783   1.460       .  S
C755        N756   1.359       .  A
C755        C782   1.463       .  S
C757        N758   1.356       .  A
C757       C1074   1.493       .  S
N758        C759   1.354       .  A
C759        N760   1.357       .  A
C759        C806   1.458       .  S
C761        N762   1.358       .  A
C761        C807   1.460       .  S
N763        N764   1.318       .  A
N763        N769   1.316       .  A
N763       Mn792   2.192       .  S
N764        C771   1.349       .  A
N765        N767   1.316       .  A
N765        N766   1.324       .  A
N765       Mn781   2.209   1_545  S
N766        C772   1.353       .  A
N767        N768   1.315       .  A
N767       Mn792   2.185       .  S
N768        C772   1.348       .  A
N769        N770   1.324       .  A
N769       Mn781   2.214   1_545  S
N770        C771   1.354       .  A
C771        C816   1.462       .  S
C772        C818   1.456       .  S
N773        N779   1.316       .  A
N773        N774   1.325       .  A
N773       Mn803   2.219       .  S
N774        C782   1.355       .  A
N775        N776   1.317       .  A
N775        N777   1.316       .  A
N775       Mn781   2.188       .  S
N776        C783   1.348       .  A
N777        N778   1.324       .  A
N777       Mn803   2.215       .  S
N778        C783   1.354       .  A
N779        N780   1.317       .  A
N779       Mn781   2.192       .  S
N780        C782   1.348       .  A
Mn781      Cl805   2.548   1_565  S
N784        N785   1.323       .  A
N784        N790   1.316       .  A
N784       Mn792   2.208       .  S
N785        C793   1.352       .  A
N786        N788   1.316       .  A
N786        N787   1.316       .  A
N786       Mn804   2.187       .  S
N787        C794   1.348       .  A
N788        N789   1.323       .  A
N788       Mn792   2.206       .  S
N789        C794   1.353       .  A
N790        N791   1.317       .  A
N790       Mn804   2.187       .  S
N791        C793   1.348       .  A
Mn792      Cl805   2.548       .  S
C793        C810   1.456       .  S
C794        C812   1.455       .  S
N795        N796   1.317       .  A
N795        N801   1.316   1_565  A
N795       Mn803   2.197       .  S
N796        C806   1.350       .  A
N797        N798   1.323   1_565  A
N797        N799   1.316       .  A
N797       Mn804   2.209   1_565  S
N798        C807   1.353   1_545  A
N799        N800   1.318       .  A
N799       Mn803   2.196       .  S
N800        C807   1.350       .  A
N801        N802   1.323       .  A
N801       Mn804   2.203       .  S
N802        C806   1.352   1_545  A
Mn803      Cl805   2.548   1_565  S
Mn804      Cl805   2.548       .  S
C808        N809   1.356       .  A
C808       C1053   1.478       .  S
N809        C810   1.356       .  A
C810        N811   1.357       .  A
C812        N813   1.356       .  A
C814        N819   1.354       .  A
C814       C1018   1.477       .  S
N815        C816   1.359       .  A
C816        N817   1.359       .  A
C818        N819   1.354       .  A
N820        N821   1.323       .  A
N820        N826   1.315       .  A
N820       Mn849   2.210       .  S
N821        C828   1.353       .  A
N822        N824   1.316       .  A
N822        N823   1.316       .  A
N822       Mn838   2.187   1_655  S
N823        C829   1.348       .  A
N824        N825   1.323       .  A
N824       Mn849   2.209       .  S
N825        C829   1.353       .  A
N826        N827   1.316       .  A
N826       Mn838   2.182   1_655  S
N827        C828   1.348       .  A
C828        C879   1.456       .  S
C829        C881   1.457       .  S
N830        N836   1.316       .  A
N830        N831   1.315       .  A
N830       Mn860   2.186       .  S
N831        C839   1.348       .  A
N832        N833   1.322       .  A
N832        N834   1.316       .  A
N832       Mn838   2.205       .  S
N833        C840   1.352       .  A
N834        N835   1.318       .  A
N834       Mn860   2.193       .  S
N835        C840   1.350       .  A
N836        N837   1.322       .  A
N836       Mn838   2.201       .  S
N837        C839   1.352       .  A
Mn838      Cl862   2.545       .  S
C839        C885   1.452       .  S
C840        C887   1.457       .  S
N841        N842   1.317       .  A
N841        N847   1.316       .  A
N841       Mn849   2.189   1_455  S
N842        C850   1.349       .  A
N843        N845   1.316       .  A
N843        N844   1.323       .  A
N843       Mn861   2.201       .  S
N844        C851   1.352       .  A
N845        N846   1.315       .  A
N845       Mn849   2.188   1_455  S
N846        C851   1.349       .  A
N847        N848   1.323       .  A
N847       Mn861   2.214       .  S
N848        C850   1.354       .  A
Mn849      Cl862   2.546   1_655  S
C850        C875   1.460       .  S
C851        C873   1.455       .  S
N852        N853   1.323       .  A
N852        N858   1.316       .  A
N852       Mn860   2.208       .  S
N853        C863   1.353       .  A
N854        N855   1.316       .  A
N854        N856   1.316       .  A
N854       Mn861   2.184       .  S
N855        C864   1.348       .  A
N856        N857   1.324       .  A
N856       Mn860   2.213       .  S
N857        C864   1.354       .  A
N858        N859   1.317       .  A
N858       Mn861   2.191       .  S
N859        C863   1.349       .  A
Mn860      Cl862   2.546       .  S
Mn861      Cl862   2.546       .  S
C863        C867   1.458       .  S
C864        C869   1.457       .  S
C865        N870   1.356       .  A
C865        C997   1.481       .  S
N866        C867   1.357       .  A
N868        C869   1.358       .  A
C869        N870   1.356       .  A
C871        N876   1.360       .  A
C871       C1025   1.498       .  S
N872        C873   1.353   1_655  A
N874        C875   1.358       .  A
C875        N876   1.359   1_455  A
C877        N882   1.357       .  A
C877        C962   1.486       .  S
N878        C879   1.357       .  A
N880        C881   1.358       .  A
C881        N882   1.356       .  A
C883        N884   1.354       .  A
C883       C1081   1.480       .  S
N884        C885   1.354       .  A
C885        N886   1.357       .  A
C887        N888   1.357       .  A
N889        N890   1.324       .  A
N889        N895   1.316       .  A
N889       Mn918   2.217       .  S
N890        C897   1.355       .  A
N891        N893   1.315       .  A
N891        N892   1.316       .  A
N891       Mn907   2.187       .  S
N892        C898   1.348       .  A
N893        N894   1.323       .  A
N893       Mn918   2.204       .  S
N894        C898   1.353       .  A
N895        N896   1.315       .  A
N895       Mn907   2.181       .  S
N896        C897   1.347       .  A
C897        C936   1.458       .  S
C898        C938   1.455       .  S
N899        N905   1.316       .  A
N899        N900   1.324       .  A
N899       Mn929   2.217       .  S
N900        C908   1.355       .  A
N901        N902   1.316       .  A
N901        N903   1.316       .  A
N901       Mn907   2.188       .  S
N902        C909   1.348       .  A
N903        N904   1.323       .  A
N903       Mn929   2.204       .  S
N904        C909   1.353       .  A
N905        N906   1.316       .  A
N905       Mn907   2.182       .  S
N906        C908   1.347       .  A
Mn907      Cl931   2.545       .  S
C908        C950   1.458       .  S
C909        C948   1.456       .  S
N910        N911   1.323       .  A
N910        N916   1.316       .  A
N910       Mn918   2.215       .  S
N911        C919   1.354       .  A
N912        N914   1.316       .  A
N912        N913   1.315       .  A
N912       Mn930   2.186       .  S
N913        C920   1.347       .  A
N914        N915   1.322       .  A
N914       Mn918   2.201       .  S
N915        C920   1.352       .  A
N916        N917   1.316       .  A
N916       Mn930   2.182       .  S
N917        C919   1.347       .  A
Mn918      Cl931   2.547       .  S
C919        C944   1.457       .  S
C920        C942   1.452       .  S
N921        N922   1.324       .  A
N921        N927   1.316       .  A
N921       Mn929   2.219       .  S
N922        C932   1.355       .  A
N923        N924   1.316       .  A
N923        N925   1.316       .  A
N923       Mn930   2.191       .  S
N924        C933   1.349       .  A
N925        N926   1.323       .  A
N925       Mn929   2.202       .  S
N926        C933   1.352       .  A
N927        N928   1.317       .  A
N927       Mn930   2.184       .  S
N928        C932   1.347       .  A
Mn929      Cl931   2.546       .  S
Mn930      Cl931   2.546       .  S
C932        C954   1.460       .  S
C933        C956   1.456       .  S
C934        N935   1.357       .  A
C934       C1046   1.491       .  S
N935        C936   1.357       .  A
C936        N937   1.357       .  A
C938        N939   1.356       .  A
C940        N941   1.355       .  A
C940        C990   1.487       .  S
N941        C942   1.355       .  A
C942        N943   1.357       .  A
C944        N945   1.357       .  A
C946        N947   1.357       .  A
C946        C969   1.490       .  S
N947        C948   1.356       .  A
C948        N949   1.357       .  A
C950        N951   1.357       .  A
C952        N953   1.360       .  A
C952       C1109   1.507       .  S
N953        C954   1.360       .  A
C954        N955   1.357       .  A
C956        N957   1.354       .  A
C958        C963   1.411       .  A
C958        C976   1.451       .  S
C959        C964   1.494       .  S
C959        C960   1.410       .  A
C960        C961   1.409       .  A
C960        C965   1.451       .  S
C961        C962   1.416       .  A
C961        C977   1.452       .  S
C963        C966   1.451       .  S
C964        C967   1.409       .  A
C965        N982   1.157       .  T
C966        N984   1.157       .  T
C967        C968   1.410       .  A
C967        C972   1.451       .  S
C968        C969   1.418       .  A
C968        C974   1.451       .  S
C970        C971   1.411       .  A
C970        C973   1.451       .  S
C971        C975   1.451       .  S
C972        N979   1.157       .  T
C973        N980   1.157       .  T
C974        N978   1.157       .  T
C975        N981   1.157       .  T
C976        N985   1.157       .  T
C977        N983   1.157       .  T
C986        C987   1.410       .  A
C986        C991   1.410       .  A
C986       C1004   1.452       .  S
C987        C992   1.494       .  S
C988        C989   1.409       .  A
C988        C993   1.451       .  S
C989       C1005   1.452       .  S
C990        C991   1.418       .  A
C991        C994   1.452       .  S
C992        C999   1.411       .  A
C993       N1010   1.157       .  T
C994       N1012   1.158       .  T
C995        C996   1.410       .  A
C995       C1000   1.451       .  S
C996       C1002   1.451       .  S
C997        C998   1.414       .  A
C998        C999   1.409       .  A
C998       C1001   1.451       .  S
C999       C1003   1.451       .  S
C1000      N1007   1.157       .  T
C1001      N1008   1.157       .  T
C1002      N1006   1.157       .  T
C1003      N1009   1.157       .  T
C1004      N1013   1.157       .  T
C1005      N1011   1.157       .  T
C1014      C1015   1.411       .  A
C1014      C1019   1.406       .  A
C1014      C1032   1.452       .  S
C1015      C1020   1.492       .  S
C1016      C1017   1.412       .  A
C1016      C1021   1.449       .  S
C1017      C1033   1.450       .  S
C1018      C1019   1.412       .  A
C1019      C1022   1.452       .  S
C1020      C1023   1.408       .  A
C1021      N1038   1.157       .  T
C1022      N1040   1.157       .  T
C1023      C1024   1.412       .  A
C1023      C1028   1.450       .  S
C1024      C1025   1.420       .  A
C1024      C1030   1.451       .  S
C1026      C1027   1.408       .  A
C1026      C1029   1.452       .  S
C1027      C1031   1.453       .  S
C1028      N1035   1.157       .  T
C1029      N1036   1.158       .  T
C1030      N1034   1.157       .  T
C1031      N1037   1.157       .  T
C1032      N1041   1.157       .  T
C1033      N1039   1.157       .  T
C1042      C1047   1.409       .  A
C1042      C1060   1.452       .  S
C1043      C1048   1.490       .  S
C1043      C1044   1.408       .  A
C1044      C1045   1.409       .  A
C1044      C1049   1.451       .  S
C1045      C1046   1.418       .  A
C1045      C1061   1.451       .  S
C1047      C1050   1.452       .  S
C1048      C1051   1.410       .  A
C1049      N1066   1.157       .  T
C1050      N1068   1.158       .  T
C1051      C1052   1.409       .  A
C1051      C1056   1.450       .  S
C1052      C1053   1.413       .  A
C1052      C1058   1.451       .  S
C1054      C1055   1.408       .  A
C1054      C1057   1.451       .  S
C1055      C1059   1.451       .  S
C1056      N1063   1.157       .  T
C1057      N1064   1.157       .  T
C1058      N1062   1.157       .  T
C1059      N1065   1.157       .  T
C1060      N1069   1.157       .  T
C1061      N1067   1.157       .  T
C1070      C1075   1.407       .  A
C1070      C1088   1.453       .  S
C1071      C1076   1.489       .  S
C1071      C1072   1.406       .  A
C1072      C1073   1.411       .  A
C1072      C1077   1.450       .  S
C1073      C1089   1.450       .  S
C1074      C1075   1.422       .  A
C1075      C1078   1.452       .  S
C1076      C1079   1.410       .  A
C1077      N1094   1.157       .  T
C1078      N1096   1.158       .  T
C1079      C1080   1.406       .  A
C1079      C1084   1.452       .  S
C1080      C1081   1.415       .  A
C1080      C1086   1.452       .  S
C1082      C1083   1.410       .  A
C1082      C1085   1.450       .  S
C1083      C1087   1.449       .  S
C1084      N1091   1.157       .  T
C1085      N1092   1.157       .  T
C1086      N1090   1.157       .  T
C1087      N1093   1.157       .  T
C1088      N1097   1.157       .  T
C1089      N1095   1.157       .  T
C1098      C1099   1.411       .  A
C1098      C1103   1.412       .  A
C1098      C1116   1.450       .  S
C1099      C1104   1.496       .  S
C1100      C1101   1.410       .  A
C1100      C1105   1.450       .  S
C1101      C1117   1.451       .  S
C1102      C1103   1.412       .  A
C1103      C1106   1.450       .  S
C1104      C1111   1.408       .  A
C1105      N1122   1.157       .  T
C1106      N1124   1.157       .  T
C1107      C1108   1.410       .  A
C1107      C1112   1.452       .  S
C1108      C1114   1.452       .  S
C1109      C1110   1.424       .  A
C1110      C1111   1.413       .  A
C1110      C1113   1.451       .  S
C1111      C1115   1.451       .  S
C1112      N1119   1.157       .  T
C1113      N1120   1.158       .  T
C1114      N1118   1.158       .  T
C1115      N1121   1.157       .  T
C1116      N1125   1.157       .  T
C1117      N1123   1.157       .  T
