geometry optimzed in LAMMPS
_audit_creation_date              2020-11-30 
_audit_creation_method            'lammps2cif' 
_symmetry_space_group_name_H-M    'P1' 
_symmetry_Int_Tables_number       1 
_symmetry_cell_setting            triclinic 
loop_ 
_symmetry_equiv_pos_as_xyz 
  x,y,z 
_cell_length_a                    25.343384114251876 
_cell_length_b                    25.390478256650255 
_cell_length_c                    25.394445632906724 
_cell_angle_alpha                 90.23654403459189 
_cell_angle_beta                  90.11519733209643 
_cell_angle_gamma                 90.23345671314426 
loop_ 
_atom_site_label 
_atom_site_type_symbol 
_atom_site_fract_x 
_atom_site_fract_y 
_atom_site_fract_z 
_atom_site_charge 
C1          C  0.72947294  0.72717515  0.00666507     0.02700
C2          C  0.74025059  0.67294462  0.00166282    -0.13450
C3          C  0.69880771  0.63629751  0.99713875     0.00200
C4          C  0.64663144  0.65425527  0.99929219    -0.11970
C5          C  0.63542600  0.70803886  0.00254498     0.02690
C6          C  0.67676421  0.74447949  0.00644907    -0.11400
H7          H  0.78073194  0.65941164  0.00065972     0.08290
H8          H  0.61428287  0.62621451  0.99740307     0.05820
H9          H  0.66796452  0.78618577  0.00797517     0.05660
C10         C  0.72885546  0.31891633  0.99742493     0.02700
C11         C  0.74153603  0.37290050  0.99533429    -0.13450
C12         C  0.70142268  0.41066471  0.99929830     0.00200
C13         C  0.64920771  0.39404053  0.00637473    -0.11970
C14         C  0.63627573  0.34053411  0.00868411     0.02690
C15         C  0.67608174  0.30282683  0.00349881    -0.11400
H16         H  0.78213365  0.38529707  0.99004709     0.08290
H17         H  0.61809695  0.42311405  0.00947428     0.05820
H18         H  0.66624558  0.26128641  0.00512954     0.05660
C19         C  0.32023595  0.32244557  0.99766078     0.02700
C20         C  0.37335130  0.30732539  0.00300482    -0.13450
C21         C  0.41316725  0.34560819  0.00676458     0.00200
C22         C  0.39971118  0.39904299  0.00657469    -0.11970
C23         C  0.34705182  0.41458608  0.00176920     0.02690
C24         C  0.30739554  0.37629872  0.99665327    -0.11400
H25         H  0.38367455  0.26599102  0.00460095     0.08290
H26         H  0.43047006  0.42873898  0.00958987     0.05820
H27         H  0.26665197  0.38839385  0.99238628     0.05660
C28         C  0.31965534  0.73067771  0.00513804     0.02700
C29         C  0.37286140  0.74650897  0.00491759    -0.13450
C30         C  0.41280387  0.70864945  0.00342948     0.00200
C31         C  0.39950092  0.65514458  0.00144333    -0.11970
C32         C  0.34667099  0.63900112  0.00183117     0.02690
C33         C  0.30661481  0.67681277  0.00457503    -0.11400
H34         H  0.38304576  0.78800948  0.00527316     0.08290
H35         H  0.43048557  0.62585416  0.99950242     0.05820
H36         H  0.26561800  0.66451223  0.00431991     0.05660
C37         C  0.72835255  0.03373489  0.70436554     0.02700
C38         C  0.67506230  0.03929140  0.71848385    -0.13450
C39         C  0.63593865  0.03940507  0.67942249     0.00200
C40         C  0.65027010  0.03302697  0.62657917    -0.11970
C41         C  0.70319532  0.02730725  0.61217338     0.02690
C42         C  0.74236022  0.02755491  0.65118228    -0.11400
H43         H  0.66420378  0.04369989  0.75951548     0.08290
H44         H  0.61994607  0.03263899  0.59636687     0.05820
H45         H  0.78340414  0.02285109  0.64029804     0.05660
C46         C  0.31921385  0.03145229  0.70318589     0.02700
C47         C  0.37279103  0.03527055  0.71729424    -0.13450
C48         C  0.41175536  0.03426442  0.67820052     0.00200
C49         C  0.39695760  0.02836051  0.62539145    -0.11970
C50         C  0.34381950  0.02343671  0.61103805     0.02690
C51         C  0.30477821  0.02576402  0.64996946    -0.11400
H52         H  0.38398067  0.03951984  0.75830654     0.08290
H53         H  0.42712579  0.02725465  0.59516345     0.05820
H54         H  0.26354379  0.02221229  0.63909043     0.05660
C55         C  0.32120113  0.02065730  0.29454620     0.02700
C56         C  0.37483907  0.02368993  0.28061427    -0.13450
C57         C  0.41378542  0.02540757  0.31971690     0.00200
C58         C  0.39926121  0.02296831  0.37273754    -0.11970
C59         C  0.34612127  0.01984383  0.38727503     0.02690
C60         C  0.30698611  0.01923090  0.34814614    -0.11400
H61         H  0.38621093  0.02516785  0.23952555     0.08290
H62         H  0.42957797  0.02386693  0.40294996     0.05820
H63         H  0.26577944  0.01768049  0.35934396     0.05660
C64         C  0.73039320  0.01926360  0.29629630     0.02700
C65         C  0.74441823  0.01676153  0.34993204    -0.13450
C66         C  0.70524373  0.01697364  0.38877192     0.00200
C67         C  0.65222579  0.02109952  0.37405518    -0.11970
C68         C  0.63776163  0.02398615  0.32104694     0.02690
C69         C  0.67680381  0.02340726  0.28210461    -0.11400
H70         H  0.78550347  0.01354890  0.36133747     0.08290
H71         H  0.62188294  0.02149150  0.40412800     0.05820
H72         H  0.66552688  0.02626330  0.24104048     0.05660
C73         C  0.02973512  0.31848674  0.70298455     0.02700
C74         C  0.02138313  0.37187551  0.71560499    -0.13450
C75         C  0.01719450  0.40952434  0.67569559     0.00200
C76         C  0.02292578  0.39388692  0.62315380    -0.11970
C77         C  0.03122913  0.34106532  0.60984720     0.02690
C78         C  0.03437399  0.30331483  0.64977244    -0.11400
H79         H  0.01785053  0.38410137  0.75637992     0.08290
H80         H  0.02124846  0.42319987  0.59224506     0.05820
H81         H  0.04064234  0.26241015  0.63952279     0.05660
C82         C  0.03239670  0.72554365  0.70401146     0.02700
C83         C  0.03727216  0.73982096  0.65052135    -0.13450
C84         C  0.03177809  0.70194283  0.61071494     0.00200
C85         C  0.02596516  0.64896809  0.62418468    -0.11970
C86         C  0.02166181  0.63365271  0.67682803     0.02690
C87         C  0.02293890  0.67220439  0.71658077    -0.11400
H88         H  0.04328158  0.78059825  0.63959613     0.08290
H89         H  0.02345003  0.61950893  0.59320711     0.05820
H90         H  0.01577011  0.66055942  0.75689343     0.05660
C91         C  0.02443188  0.32248987  0.29454334     0.02700
C92         C  0.02895016  0.30850111  0.34801296    -0.13450
C93         C  0.03272958  0.34744271  0.38699388     0.00200
C94         C  0.02859356  0.40042077  0.37289939    -0.11970
C95         C  0.02303019  0.41506432  0.32015466     0.02690
C96         C  0.02321149  0.37623679  0.28084527    -0.11400
H97         H  0.03023807  0.26742453  0.35933457     0.08290
H98         H  0.02970998  0.43057028  0.40327901     0.05820
H99         H  0.02164338  0.38791164  0.23991041     0.05660
C100        C  0.03342816  0.73120014  0.29453658     0.02700
C101        C  0.03388068  0.74569805  0.34820929    -0.13450
C102        C  0.03284781  0.70686122  0.38722060     0.00200
C103        C  0.03059354  0.65380900  0.37260039    -0.11970
C104        C  0.02880242  0.63878274  0.31961726     0.02690
C105        C  0.03041099  0.67751019  0.28052865    -0.11400
H106        H  0.03402836  0.78687606  0.35955933     0.08290
H107        H  0.02929992  0.62384367  0.40292082     0.05820
H108        H  0.02881144  0.66593408  0.23943426     0.05660
O109        O  0.94035765  0.87282373  0.99919358    -0.80560
O110        O  0.93593328  0.17368061  0.99976890    -0.82110
O111        O  0.87500582  0.02293803  0.08677790    -0.79130
O112        O  0.87275239  0.02383010  0.91411447    -0.77520
O113        O  0.93615835  0.02489673  0.84981468    -0.79310
O114        O  0.93964937  0.02488983  0.14992017    -0.80240
O115        O  0.87261884  0.10891448  0.99792888    -0.81570
O116        O  0.87561204  0.93548547  0.00161997    -0.81850
Eu117      Eu  0.91738205  0.02320729  0.99984813     2.39200
O118        O  0.96990737  0.07748231  0.94621285    -0.89360
O119        O  0.97201918  0.97080778  0.05281283    -0.92970
C120        C  0.89167872  0.88727899  0.00054164     1.01720
C121        C  0.88757995  0.15754597  0.99865539     1.01540
C122        C  0.89092428  0.02419317  0.13509211     1.01480
C123        C  0.88774764  0.02449305  0.86563977     0.99340
H124        H  0.94858844  0.09982825  0.07535726     0.29090
O125        O  0.97049961  0.07803908  0.05318900    -1.01750
H126        H  0.94899492  0.94815380  0.92339957     0.29130
O127        O  0.97082708  0.97045279  0.94541695    -1.04290
O128        O  0.10947933  0.17642465  0.00083595    -0.81520
O129        O  0.11233619  0.87569932  0.00221368    -0.81060
O130        O  0.02764401  0.11175422  0.14925152    -0.79490
O131        O  0.02410957  0.11122028  0.84927150    -0.82830
O132        O  0.02775917  0.93902151  0.84859580    -0.80690
O133        O  0.02645354  0.93940995  0.14900473    -0.79340
O134        O  0.17611393  0.02816502  0.08435645    -0.80860
O135        O  0.17438122  0.02554013  0.91087669    -0.82780
O136        O  0.11251448  0.02563578  0.14833901    -0.79520
O137        O  0.10958444  0.02688121  0.84775337    -0.82200
O138        O  0.02470285  0.17533435  0.08570642    -0.77930
O139        O  0.02409700  0.87537304  0.08522214    -0.77970
O140        O  0.02697333  0.87524129  0.91178485    -0.77610
O141        O  0.02196480  0.17512646  0.91319443    -0.81110
O142        O  0.17409890  0.11360680  0.99863854    -0.80530
O143        O  0.17592982  0.94011483  0.99910483    -0.78860
Eu144      Eu  0.02329419  0.13179510  0.99938510     2.39770
Eu145      Eu  0.02571110  0.91828311  0.99870792     2.39570
Eu146      Eu  0.02561127  0.02541131  0.10560650     2.38400
Eu147      Eu  0.02376899  0.02501533  0.89232902     2.39880
Eu148      Eu  0.13196087  0.02633861  0.99804433     2.39790
O149        O  0.07852310  0.97198308  0.94480344    -0.93270
O150        O  0.07827628  0.07926992  0.05196971    -0.92170
C151        C  0.15820351  0.16182264  0.00035441     1.01900
C152        C  0.16071519  0.89161325  0.00168561     1.00610
C153        C  0.02706855  0.16016627  0.13406706     1.00000
C154        C  0.02292794  0.15963240  0.86475433     1.02020
C155        C  0.02742011  0.89050602  0.86331889     1.00930
C156        C  0.02506145  0.89094949  0.13365596     0.99780
C157        C  0.16093709  0.02731349  0.13284904     0.99840
C158        C  0.15825380  0.02630008  0.86262904     1.02460
H159        H  0.10132282  0.95105408  0.07393223     0.29830
O160        O  0.07918609  0.97257260  0.05185368    -1.05440
H161        H  0.09902033  0.10163325  0.92349114     0.31880
O162        O  0.07737839  0.07934160  0.94541351    -1.08000
C163        C  0.03290039  0.77199936  0.25294916    -0.06550
C164        C  0.99269323  0.77009054  0.21476322    -0.17680
C165        C  0.98858564  0.80873792  0.17590694     0.10650
C166        C  0.02565618  0.85035672  0.17480435    -0.06480
C167        C  0.06569050  0.85252278  0.21296364    -0.17710
C168        C  0.07038493  0.81339739  0.25125421     0.10680
S169        S  0.93405114  0.80378798  0.13028107    -0.32680
S170        S  0.12665470  0.81720810  0.29473624    -0.32680
H171        H  0.13334017  0.76244972  0.29926705     0.28690
H172        H  0.92649290  0.85835075  0.12479887     0.28680
H173        H  0.96342905  0.73887407  0.21597641     0.19270
H174        H  0.09475646  0.88393814  0.21169518     0.19280
C175        C  0.01775681  0.47152285  0.30759994    -0.06550
C176        C  0.05916568  0.49745628  0.28170532    -0.17680
C177        C  0.06241021  0.55259633  0.28171400     0.10650
C178        C  0.02270704  0.58219841  0.30710899    -0.06480
C179        C  0.97866545  0.55606996  0.32810905    -0.17710
C180        C  0.97582000  0.50109098  0.32873273     0.10680
S181        S  0.12005296  0.58229479  0.25256766    -0.32680
S182        S  0.91970528  0.46877150  0.35858723    -0.32680
H183        H  0.89229361  0.51473547  0.37278897     0.28690
H184        H  0.12636363  0.62213197  0.29068369     0.28680
H185        H  0.09124342  0.47468401  0.26518087     0.19270
H186        H  0.94785005  0.57898130  0.34666554     0.19280
C187        C  0.02813679  0.20152637  0.17495834    -0.06550
C188        C  0.99236971  0.24325192  0.17062379    -0.17680
C189        C  0.98819725  0.28158865  0.21000641     0.10650
C190        C  0.02346435  0.28075747  0.25332921    -0.06480
C191        C  0.05997400  0.23936163  0.25703945    -0.17710
C192        C  0.06234963  0.19964320  0.21888609     0.10680
S193        S  0.93450593  0.32766772  0.20409862    -0.32680
S194        S  0.11130969  0.14906936  0.22789568    -0.32680
H195        H  0.12180111  0.14204569  0.17412456     0.28690
H196        H  0.92500386  0.33161212  0.25852773     0.28680
H197        H  0.96583873  0.24477214  0.13724303     0.19270
H198        H  0.08771828  0.23836589  0.28953790     0.19280
C199        C  0.02811702  0.71674814  0.55463259    -0.06550
C200        C  0.07324653  0.73508200  0.52839109    -0.17680
C201        C  0.07505556  0.73630024  0.47314677     0.10650
C202        C  0.03042773  0.71970016  0.44387223    -0.06480
C203        C  0.98395062  0.70615319  0.47045784    -0.17710
C204        C  0.98216494  0.70487573  0.52528018     0.10680
S205        S  0.13629675  0.75593507  0.44276214    -0.32680
S206        S  0.92094475  0.68463438  0.55543522    -0.32680
H207        H  0.92895165  0.71193550  0.60310423     0.28690
H208        H  0.13273629  0.72248848  0.39870179     0.28680
H209        H  0.10844584  0.74465212  0.55082420     0.19270
H210        H  0.94948715  0.69381774  0.44816188     0.19280
C211        C  0.03245157  0.76730154  0.74560820    -0.06550
C212        C  0.00514106  0.81428764  0.73550803    -0.17680
C213        C  0.00319421  0.85520751  0.77232923     0.10650
C214        C  0.02799507  0.84911297  0.82194482    -0.06480
C215        C  0.05521588  0.80219549  0.83229475    -0.17710
C216        C  0.05871617  0.76181244  0.79457532     0.10680
S217        S  0.96751560  0.91334407  0.75294857    -0.32680
S218        S  0.10068466  0.70616052  0.80834591    -0.32680
H219        H  0.10950068  0.71719531  0.86198808     0.28690
H220        H  0.94491864  0.92191014  0.80253678     0.28680
H221        H  0.98418432  0.81910333  0.69862658     0.19270
H222        H  0.07559673  0.79802944  0.86954689     0.19280
C223        C  0.03815539  0.32765888  0.55365146    -0.06550
C224        C  0.08137676  0.35016883  0.52750153    -0.17680
C225        C  0.08239160  0.35350619  0.47251292     0.10650
C226        C  0.03927164  0.33385142  0.44310439    -0.06480
C227        C  0.99839703  0.30705077  0.46890235    -0.17710
C228        C  0.99748939  0.30364920  0.52390013     0.10680
S229        S  0.13752085  0.38512872  0.44022594    -0.32680
S230        S  0.94042173  0.27428725  0.55410423    -0.32680
H231        H  0.97000409  0.24051724  0.58622115     0.28690
H232        H  0.16682708  0.39644653  0.48601999     0.28680
H233        H  0.11256152  0.36837132  0.55053033     0.19270
H234        H  0.96531911  0.29178775  0.44634601     0.19280
C235        C  0.00979051  0.46602875  0.68781690    -0.06550
C236        C  0.04912548  0.49243564  0.71666126    -0.17680
C237        C  0.05241223  0.54751436  0.71662763     0.10650
C238        C  0.01456923  0.57696660  0.68838793    -0.06480
C239        C  0.97233542  0.55045087  0.66397370    -0.17710
C240        C  0.96940124  0.49552685  0.66356556     0.10680
S241        S  0.10867035  0.57700727  0.74887795    -0.32680
S242        S  0.91451546  0.46536164  0.62933846    -0.32680
H243        H  0.91508535  0.41804415  0.65794086     0.28690
H244        H  0.11799540  0.61546287  0.71030357     0.28680
H245        H  0.08017054  0.47000311  0.73542696     0.19270
H246        H  0.94266674  0.57274839  0.64293608     0.19280
C247        C  0.03044304  0.27846730  0.74539688    -0.06550
C248        C  0.98940949  0.27903800  0.78257596    -0.17680
C249        C  0.98574404  0.24066525  0.82167692     0.10650
C250        C  0.02373363  0.20029776  0.82377889    -0.06480
C251        C  0.06483416  0.19955683  0.78691656    -0.17710
C252        C  0.06939503  0.23876594  0.74866187     0.10680
S253        S  0.93067047  0.24439633  0.86641875    -0.32680
S254        S  0.12743317  0.23736299  0.70764484    -0.32680
H255        H  0.13162666  0.29233828  0.70233698     0.28690
H256        H  0.92412530  0.18967525  0.87205979     0.28680
H257        H  0.95906635  0.30890622  0.78035192     0.19270
H258        H  0.09476034  0.16923936  0.78921493     0.19280
C259        C  0.77192581  0.01876468  0.25529391    -0.06550
C260        C  0.81289533  0.05603100  0.25868726    -0.17680
C261        C  0.85187718  0.05930956  0.21989713     0.10650
C262        C  0.85015866  0.02432673  0.17642023    -0.06480
C263        C  0.80923662  0.98707152  0.17298634    -0.17710
C264        C  0.77089686  0.98314306  0.21232359     0.10680
S265        S  0.90140930  0.11011846  0.22774811    -0.32680
S266        S  0.72368491  0.93003125  0.20668194    -0.32680
H267        H  0.71889621  0.92147045  0.26115496     0.28690
H268        H  0.91008555  0.11869088  0.17389878     0.28680
H269        H  0.81386369  0.08367160  0.29132313     0.19270
H270        H  0.80825023  0.95946101  0.14031172     0.19280
C271        C  0.47024074  0.02960844  0.30649833    -0.06550
C272        C  0.49695413  0.98396068  0.29070377    -0.17680
C273        C  0.55216831  0.98181441  0.29188666     0.10650
C274        C  0.58118439  0.02673813  0.30797060    -0.06480
C275        C  0.55441795  0.07351101  0.31980692    -0.17710
C276        C  0.49934441  0.07549325  0.31897490     0.10680
S277        S  0.58277919  0.91965358  0.27625559    -0.32680
S278        S  0.46831352  0.13662379  0.33752808    -0.32680
H279        H  0.42103562  0.12779614  0.30972728     0.28690
H280        H  0.62458359  0.92370618  0.31247942     0.28680
H281        H  0.47464883  0.94859839  0.28141642     0.19270
H282        H  0.57657236  0.10802351  0.33220237     0.19280
C283        C  0.28022842  0.02097240  0.25286865    -0.06550
C284        C  0.28043159  0.06242717  0.21641528    -0.17680
C285        C  0.24197056  0.06595688  0.17700515     0.10650
C286        C  0.20192176  0.02714210  0.17396306    -0.06480
C287        C  0.20154241  0.98579629  0.21045203    -0.17710
C288        C  0.24076110  0.98163275  0.24902128     0.10680
S289        S  0.24610195  0.12163782  0.13308515    -0.32680
S290        S  0.23973946  0.92379602  0.29003448    -0.32680
H291        H  0.29483491  0.91998444  0.29543914     0.28690
H292        H  0.19309749  0.12235846  0.11737109     0.28680
H293        H  0.31045969  0.09284366  0.21919557     0.19270
H294        H  0.17148654  0.95539682  0.20763538     0.19280
C295        C  0.33072743  0.01613599  0.55478035    -0.06550
C296        C  0.30944827  0.05868031  0.52689674    -0.17680
C297        C  0.31098705  0.05987736  0.47170596     0.10650
C298        C  0.33317914  0.01704901  0.44388597    -0.06480
C299        C  0.35024080  0.97271420  0.47182437    -0.17710
C300        C  0.34894961  0.97166101  0.52678411     0.10680
S301        S  0.28813748  0.11879368  0.43960993    -0.32680
S302        S  0.37413592  0.91380155  0.55915153    -0.32680
H303        H  0.34525685  0.92028107  0.60595332     0.28690
H304        H  0.32647129  0.11933042  0.39969156     0.28680
H305        H  0.29564193  0.09298716  0.54825830     0.19270
H306        H  0.36690256  0.93957446  0.45065457     0.19280
C307        C  0.27829292  0.03150666  0.74429960    -0.06550
C308        C  0.26339403  0.98311093  0.76620448    -0.17680
C309        C  0.22328429  0.98011390  0.80384208     0.10650
C310        C  0.19853647  0.02672289  0.82117172    -0.06480
C311        C  0.21302113  0.07510915  0.79895053    -0.17710
C312        C  0.25261209  0.07805718  0.76066247     0.10680
S313        S  0.20498532  0.91564128  0.82726715    -0.32680
S314        S  0.26742179  0.14207472  0.73365775    -0.32680
H315        H  0.31969712  0.13183360  0.71876790     0.28690
H316        H  0.15240924  0.92735531  0.84006383     0.28680
H317        H  0.28251636  0.94727618  0.75308628     0.19270
H318        H  0.19358970  0.11087375  0.81181726     0.19280
C319        C  0.71589583  0.02068208  0.55586779    -0.06550
C320        C  0.69742179  0.97510600  0.53037542    -0.17680
C321        C  0.69862878  0.97064137  0.47558661     0.10650
C322        C  0.71812822  0.01292686  0.44530112    -0.06480
C323        C  0.74076428  0.05663188  0.47084720    -0.17710
C324        C  0.73935640  0.06123248  0.52586525     0.10680
S325        S  0.67174394  0.91142308  0.44632668    -0.32680
S326        S  0.76407790  0.12144552  0.55487841    -0.32680
H327        H  0.72548696  0.12547691  0.59434989     0.28690
H328        H  0.70079390  0.91438174  0.39928668     0.28680
H329        H  0.67977578  0.94372044  0.55328010     0.19270
H330        H  0.75558657  0.08924947  0.44770282     0.19280
C331        C  0.57946170  0.04507857  0.69232263    -0.06550
C332        C  0.55303170  0.00255448  0.71576667    -0.17680
C333        C  0.49778637  0.99916659  0.71467157     0.10650
C334        C  0.46843667  0.03981681  0.69072175    -0.06480
C335        C  0.49491640  0.08430561  0.67139038    -0.17710
C336        C  0.54992156  0.08750714  0.67221634     0.10680
S337        S  0.46764524  0.94021350  0.74046510    -0.32680
S338        S  0.58036093  0.14526816  0.64411608    -0.32680
H339        H  0.62768654  0.14200535  0.67293421     0.28690
H340        H  0.42714614  0.93644751  0.70272793     0.28680
H341        H  0.57559370  0.96979483  0.73103521     0.19270
H342        H  0.47256077  0.11577398  0.65333172     0.19280
C343        C  0.84621413  0.02589413  0.82526910    -0.06550
C344        C  0.82948304  0.07513571  0.80699704    -0.17680
C345        C  0.79102173  0.07905408  0.76755947     0.10650
C346        C  0.76942170  0.03262125  0.74538772    -0.06480
C347        C  0.78591822  0.98346614  0.76390266    -0.17710
C348        C  0.82309176  0.97958538  0.80442258     0.10680
S349        S  0.77062554  0.14422513  0.74824382    -0.32680
S350        S  0.83811772  0.91453010  0.82815144    -0.32680
H351        H  0.85061121  0.92949916  0.87996451     0.28690
H352        H  0.75454290  0.13140288  0.69681131     0.28680
H353        H  0.84650666  0.11077120  0.82362414     0.19270
H354        H  0.76862346  0.94785518  0.74753233     0.19280
C355        C  0.20176402  0.85110932  0.00416239    -0.06550
C356        C  0.23168368  0.84138234  0.95895401    -0.17680
C357        C  0.26902928  0.80111292  0.95770803     0.10650
C358        C  0.27778212  0.77068192  0.00327465    -0.06480
C359        C  0.24779513  0.78030923  0.04865279    -0.17710
C360        C  0.21007762  0.82046438  0.04967971     0.10680
S361        S  0.30345813  0.78991897  0.89657104    -0.32680
S362        S  0.17489640  0.83166697  0.11039140    -0.32680
H363        H  0.16984182  0.88642729  0.10431330     0.28690
H364        H  0.31013828  0.73540373  0.90312391     0.28680
H365        H  0.22496768  0.86452195  0.92399370     0.19270
H366        H  0.25472169  0.75724178  0.08379499     0.19280
C367        C  0.33485347  0.47131431  0.00028828    -0.06550
C368        C  0.34427185  0.49838076  0.95320836    -0.17680
C369        C  0.34403900  0.55342365  0.95172292     0.10650
C370        C  0.33463986  0.58222044  0.99843387    -0.06480
C371        C  0.32250771  0.55520495  0.04491323    -0.17710
C372        C  0.32246217  0.50006049  0.04635612     0.10600
S373        S  0.35951540  0.58471552  0.88995811    -0.32680
S374        S  0.31174192  0.46906924  0.10921392    -0.32680
H375        H  0.28858530  0.42276814  0.08938406     0.28690
H376        H  0.33195403  0.63160284  0.90006110     0.28680
H377        H  0.35425838  0.47646792  0.91790515     0.19270
H378        H  0.31606103  0.57721122  0.08098149     0.19280
C379        C  0.27783494  0.28212681  0.99591054    -0.06550
C380        C  0.23710972  0.28521443  0.03320913    -0.17680
C381        C  0.19791165  0.24639746  0.03615180     0.10650
C382        C  0.19907856  0.20329588  0.00074100    -0.06480
C383        C  0.23962378  0.20029765  0.96330891    -0.17710
C384        C  0.27825648  0.23960165  0.95979391     0.10680
S385        S  0.14904209  0.25343018  0.08731171    -0.32680
S386        S  0.32519533  0.23441074  0.90674355    -0.32680
H387        H  0.33119356  0.28898507  0.89944335     0.28690
H388        H  0.14125481  0.19936354  0.09572076     0.28680
H389        H  0.23667541  0.31745525  0.06132172     0.19270
H390        H  0.24017222  0.16791120  0.93535143     0.19280
C391        C  0.58021267  0.32588824  0.01451891    -0.06550
C392        C  0.55286870  0.30789219  0.96984247    -0.17680
C393        C  0.49773689  0.31086719  0.96715793     0.10650
C394        C  0.46938775  0.33114061  0.01058927    -0.06480
C395        C  0.49658922  0.34435541  0.05695391    -0.17710
C396        C  0.55156163  0.34154666  0.05949661     0.10680
S397        S  0.46665035  0.29280761  0.90570793    -0.32680
S398        S  0.58333352  0.36199803  0.11987728    -0.32680
H399        H  0.63009530  0.33345462  0.11178892     0.28690
H400        H  0.42832903  0.33265446  0.90638467     0.28680
H401        H  0.57476137  0.29613295  0.93513238     0.19270
H402        H  0.47496728  0.35932749  0.09058837     0.19280
C403        C  0.77086382  0.27902412  0.99572836    -0.06550
C404        C  0.79676791  0.26688666  0.04290216    -0.17680
C405        C  0.83368287  0.22621839  0.04511916     0.10650
C406        C  0.84624497  0.19795342  0.99893776    -0.06480
C407        C  0.82010820  0.20975193  0.95175664    -0.17710
C408        C  0.78271840  0.25018711  0.94956956     0.10680
S409        S  0.86166557  0.21061962  0.10835176    -0.32680
S410        S  0.75141138  0.26270027  0.88702531    -0.32680
H411        H  0.74051836  0.31618457  0.89604742     0.28690
H412        H  0.86492639  0.15613961  0.09902186     0.28680
H413        H  0.78690211  0.28820083  0.07860751     0.19270
H414        H  0.82938403  0.18778841  0.91629578     0.19280
C415        C  0.57985068  0.72472416  0.99960342    -0.06550
C416        C  0.55312668  0.73631545  0.04651622    -0.17680
C417        C  0.49784043  0.73562484  0.04837998     0.10650
C418        C  0.46899982  0.72346706  0.00216099    -0.06480
C419        C  0.49581635  0.71702633  0.95440368    -0.17710
C420        C  0.55083426  0.71817451  0.95254231     0.10680
S421        S  0.46707238  0.74724525  0.11140798    -0.32680
S422        S  0.58185864  0.70741772  0.88959162    -0.32680
H423        H  0.62977103  0.73258351  0.90224783     0.28690
H424        H  0.42165154  0.71643480  0.10325771     0.28680
H425        H  0.57536643  0.74172018  0.08265243     0.19270
H426        H  0.47374641  0.70834108  0.91876996     0.19280
C427        C  0.70881318  0.57895815  0.99108799    -0.06550
C428        C  0.73955088  0.55280329  0.02889265    -0.17680
C429        C  0.74086733  0.49757258  0.03094893     0.10650
C430        C  0.71154247  0.46784754  0.99381945    -0.06480
C431        C  0.68489391  0.49410595  0.95329341    -0.17710
C432        C  0.68333622  0.54910634  0.95132422     0.10680
S433        S  0.77779116  0.46779803  0.08369285    -0.32680
S434        S  0.64876050  0.58060286  0.89772605    -0.32680
H435        H  0.62703705  0.53466391  0.87520785     0.28690
H436        H  0.74208086  0.42638195  0.09293507     0.28680
H437        H  0.75975094  0.57541912  0.05914070     0.19270
H438        H  0.66357695  0.47111295  0.92413607     0.19280
C439        C  0.77315059  0.76620697  0.00826381    -0.06550
C440        C  0.81108185  0.76501742  0.96802851    -0.17680
C441        C  0.85011983  0.80394869  0.96427559     0.10650
C442        C  0.85125762  0.84550231  0.00151477    -0.06480
C443        C  0.81397467  0.84627573  0.04223370    -0.17710
C444        C  0.77586002  0.80657350  0.04675273     0.10680
S445        S  0.89592448  0.79881541  0.91007201    -0.32680
S446        S  0.73355573  0.80847230  0.10378225    -0.32680
H447        H  0.72699010  0.75358109  0.10757203     0.28690
H448        H  0.90659658  0.85282922  0.90497696     0.28680
H449        H  0.80930473  0.73435376  0.93824987     0.19270
H450        H  0.81565750  0.87719143  0.07177713     0.19280
loop_ 
_geom_bond_atom_site_label_1 
_geom_bond_atom_site_label_2 
_geom_bond_distance 
_geom_bond_site_symmetry_2 
_ccdc_geom_bond_type 
C1            C2   1.410       .  A
C1            C6   1.408       .  A
C1          C439   1.483       .  S
C2            C3   1.405   1_554  A
C2            H7   1.084       .  S
C3            C4   1.402       .  A
C3          C427   1.486       .  S
C4            C5   1.398   1_556  A
C4            H8   1.084       .  S
C5            C6   1.398       .  A
C5          C415   1.474   1_554  S
C6            H9   1.084       .  S
C10          C11   1.408       .  A
C10          C15   1.406   1_556  A
C10         C403   1.473       .  S
C11          C12   1.404       .  A
C11          H16   1.083       .  S
C12          C13   1.400   1_556  A
C12         C430   1.481       .  S
C13          C14   1.398       .  A
C13          H17   1.085       .  S
C14          C15   1.400       .  A
C14         C391   1.475       .  S
C15          H18   1.084       .  S
C19          C20   1.408   1_556  A
C19          C24   1.407       .  A
C19         C379   1.482       .  S
C20          C21   1.401       .  A
C20          H25   1.084       .  S
C21          C22   1.400       .  A
C21         C394   1.476       .  S
C22          C23   1.398       .  A
C22          H26   1.085       .  S
C23          C24   1.401   1_554  A
C23         C367   1.475       .  S
C24          H27   1.084       .  S
C28          C29   1.406       .  A
C28          C33   1.406       .  A
C28         C358   1.473       .  S
C29          C30   1.399       .  A
C29          H34   1.084       .  S
C30          C31   1.399       .  A
C30         C418   1.472       .  S
C31          C32   1.399       .  A
C31          H35   1.085   1_554  S
C32          C33   1.402       .  A
C32         C370   1.475   1_554  S
C33          H36   1.084       .  S
C37          C38   1.406       .  A
C37          C42   1.405       .  A
C37         C346   1.472       .  S
C38          C39   1.401       .  A
C38          H43   1.084       .  S
C39          C40   1.400       .  A
C39         C331   1.476       .  S
C40          C41   1.399       .  A
C40          H44   1.085       .  S
C41          C42   1.401       .  A
C41         C319   1.475       .  S
C42          H45   1.084       .  S
C46          C47   1.406       .  A
C46          C51   1.406       .  A
C46         C307   1.473       .  S
C47          C48   1.402       .  A
C47          H52   1.084       .  S
C48          C49   1.399       .  A
C48         C334   1.477       .  S
C49          C50   1.399       .  A
C49          H53   1.085       .  S
C50          C51   1.401       .  A
C50         C295   1.477       .  S
C51          H54   1.084       .  S
C55          C56   1.407       .  A
C55          C60   1.409       .  A
C55         C283   1.481       .  S
C56          C57   1.399       .  A
C56          H61   1.084       .  S
C57          C58   1.398       .  A
C57         C271   1.474       .  S
C58          C59   1.399       .  A
C58          H62   1.085       .  S
C59          C60   1.403       .  A
C59         C298   1.477       .  S
C60          H63   1.083       .  S
C64          C65   1.409       .  A
C64          C69   1.409       .  A
C64         C259   1.482       .  S
C65          C66   1.401       .  A
C65          H70   1.084       .  S
C66          C67   1.398       .  A
C66         C322   1.476       .  S
C67          C68   1.397       .  A
C67          H71   1.085       .  S
C68          C69   1.400       .  A
C68         C274   1.473       .  S
C69          H72   1.083       .  S
C73          C74   1.409       .  A
C73          C78   1.409       .  A
C73         C247   1.484       .  S
C74          C75   1.400       .  A
C74          H79   1.084       .  S
C75          C76   1.399       .  A
C75         C235   1.479       .  S
C76          C77   1.399       .  A
C76          H80   1.085       .  S
C77          C78   1.400       .  A
C77         C223   1.477       .  S
C78          H81   1.082       .  S
C82          C83   1.413       .  A
C82          C87   1.412       .  A
C82         C211   1.494       .  S
C83          C84   1.399       .  A
C83          H88   1.083       .  S
C84          C85   1.397       .  A
C84         C199   1.477       .  S
C85          C86   1.398       .  A
C85          H89   1.085       .  S
C86          C87   1.403       .  A
C86         C238   1.480       .  S
C87          H90   1.082       .  S
C91          C92   1.409       .  A
C91          C96   1.410       .  A
C91         C190   1.486       .  S
C92          C93   1.399       .  A
C92          H97   1.084       .  S
C93          C94   1.398       .  A
C93         C226   1.477       .  S
C94          C95   1.399       .  A
C94          H98   1.085       .  S
C95          C96   1.400       .  A
C95         C175   1.476       .  S
C96          H99   1.083       .  S
C100        C101   1.410       .  A
C100        C105   1.409       .  A
C100        C163   1.482       .  S
C101        C102   1.401       .  A
C101        H106   1.083       .  S
C102        C103   1.397       .  A
C102        C202   1.475       .  S
C103        C104   1.398       .  A
C103        H107   1.085       .  S
C104        C105   1.401       .  A
C104        C178   1.478       .  S
C105        H108   1.084       .  S
O109        C120   1.289   1_556  A
O109       Eu145   2.448   1_655  S
O110        C121   1.291       .  A
O110       Eu144   2.460   1_655  S
O111        C122   1.291       .  A
O111       Eu117   2.457   1_554  S
O112        C123   1.289       .  A
O112       Eu117   2.452       .  S
O113        C123   1.292       .  A
O113       Eu147   2.467   1_655  S
O114        C122   1.290       .  A
O114       Eu146   2.454   1_655  S
O115        C121   1.290       .  A
O115       Eu117   2.459       .  S
O116        C120   1.292       .  A
O116       Eu117   2.463   1_564  S
Eu117       O127   2.355   1_545  S
Eu117       O119   2.349   1_546  S
Eu117       O118   2.352       .  S
Eu117       O125   2.355   1_556  S
O118       Eu147   2.349   1_655  S
O118       Eu144   2.349   1_655  S
O119       Eu145   2.351   1_654  S
O119       Eu146   2.351   1_665  S
C120        C442   1.472       .  S
C121        C406   1.469       .  S
C122        C262   1.474       .  S
C123        C343   1.469       .  S
H124        O125   0.966       .  S
O125       Eu146   2.352   1_655  S
O125       Eu144   2.351   1_654  S
H126        O127   0.966       .  S
O127       Eu145   2.354   1_655  S
O127       Eu147   2.355   1_665  S
O128        C151   1.291       .  A
O128       Eu144   2.457   1_554  S
O129        C152   1.290       .  A
O129       Eu145   2.453   1_554  S
O130        C153   1.290       .  A
O130       Eu146   2.453       .  S
O131        C154   1.289       .  A
O131       Eu147   2.451       .  S
O132        C155   1.289       .  A
O132       Eu147   2.448   1_565  S
O133        C156   1.289       .  A
O133       Eu146   2.450   1_565  S
O134        C157   1.291       .  A
O134       Eu148   2.459   1_554  S
O135        C158   1.291       .  A
O135       Eu148   2.463       .  S
O136        C157   1.290       .  A
O136       Eu146   2.453       .  S
O137        C158   1.289       .  A
O137       Eu147   2.454       .  S
O138        C153   1.290       .  A
O138       Eu144   2.451   1_554  S
O139        C156   1.291       .  A
O139       Eu145   2.457   1_554  S
O140        C155   1.292       .  A
O140       Eu145   2.459       .  S
O141        C154   1.290       .  A
O141       Eu144   2.454       .  S
O142        C151   1.291   1_556  A
O142       Eu148   2.456       .  S
O143        C152   1.291   1_556  A
O143       Eu148   2.461   1_565  S
Eu144       O162   2.353       .  S
Eu144       O150   2.351   1_556  S
Eu145       O149   2.352       .  S
Eu145       O160   2.350   1_556  S
Eu146       O160   2.348   1_545  S
Eu146       O150   2.348       .  S
Eu147       O149   2.353   1_545  S
Eu147       O162   2.351       .  S
Eu148       O149   2.351   1_545  S
Eu148       O160   2.351   1_546  S
Eu148       O162   2.352       .  S
Eu148       O150   2.354   1_556  S
C151        C382   1.474       .  S
C152        C355   1.467       .  S
C153        C187   1.474       .  S
C154        C250   1.469       .  S
C155        C214   1.483       .  S
C156        C166   1.471       .  S
C157        C286   1.471       .  S
C158        C310   1.468       .  S
H159        O160   0.965       .  S
H161        O162   0.966       .  S
C163        C164   1.406   1_455  A
C163        C168   1.415       .  A
C164        C165   1.398       .  A
C164        H173   1.084       .  S
C165        C166   1.412   1_655  A
C165        S169   1.805       .  S
C166        C167   1.402       .  A
C167        C168   1.398       .  A
C167        H174   1.084       .  S
C168        S170   1.804       .  S
S169        H172   1.407       .  S
S170        H171   1.406       .  S
C175        C176   1.403       .  A
C175        C180   1.409   1_455  A
C176        C177   1.402       .  A
C176        H185   1.084       .  S
C177        C178   1.414       .  A
C177        S181   1.803       .  S
C178        C179   1.403   1_455  A
C179        C180   1.398       .  A
C179        H186   1.083       .  S
C180        S182   1.808       .  S
S181        H184   1.406       .  S
S182        H183   1.407       .  S
C187        C188   1.402   1_455  A
C187        C192   1.413       .  A
C188        C189   1.397       .  A
C188        H197   1.082       .  S
C189        C190   1.416   1_655  A
C189        S193   1.805       .  S
C190        C191   1.406       .  A
C191        C192   1.397       .  A
C191        H198   1.084       .  S
C192        S194   1.804       .  S
S193        H196   1.407       .  S
S194        H195   1.402       .  S
C199        C200   1.404       .  A
C199        C204   1.412   1_455  A
C200        C201   1.404       .  A
C200        H209   1.084       .  S
C201        C202   1.414       .  A
C201        S205   1.804       .  S
C202        C203   1.401   1_455  A
C203        C204   1.394       .  A
C203        H210   1.084       .  S
C204        S206   1.805       .  S
S205        H208   1.404       .  S
S206        H207   1.406       .  S
C211        C212   1.406       .  A
C211        C216   1.417       .  A
C212        C213   1.396       .  A
C212        H221   1.083   1_455  S
C213        C214   1.416       .  A
C213        S217   1.804   1_455  S
C214        C215   1.405       .  A
C215        C216   1.403       .  A
C215        H222   1.083       .  S
C216        S218   1.807       .  S
S217        H220   1.401       .  S
S218        H219   1.407       .  S
C223        C224   1.403       .  A
C223        C228   1.412   1_455  A
C224        C225   1.400       .  A
C224        H233   1.083       .  S
C225        C226   1.411       .  A
C225        S229   1.808       .  S
C226        C227   1.402   1_455  A
C227        C228   1.400       .  A
C227        H234   1.084       .  S
C228        S230   1.799       .  S
S229        H232   1.407       .  S
S230        H231   1.404       .  S
C235        C236   1.403       .  A
C235        C240   1.413   1_455  A
C236        C237   1.401       .  A
C236        H245   1.084       .  S
C237        C238   1.415       .  A
C237        S241   1.802       .  S
C238        C239   1.404   1_455  A
C239        C240   1.396       .  A
C239        H246   1.084       .  S
C240        S242   1.805       .  S
S241        H244   1.406       .  S
S242        H243   1.407       .  S
C247        C248   1.406   1_455  A
C247        C252   1.416       .  A
C248        C249   1.397       .  A
C248        H257   1.084       .  S
C249        C250   1.410   1_655  A
C249        S253   1.804       .  S
C250        C251   1.402       .  A
C251        C252   1.398       .  A
C251        H258   1.084       .  S
C252        S254   1.804       .  S
S253        H256   1.407       .  S
S254        H255   1.407       .  S
C259        C260   1.404       .  A
C259        C264   1.415   1_545  A
C260        C261   1.399       .  A
C260        H269   1.084       .  S
C261        C262   1.415       .  A
C261        S265   1.807       .  S
C262        C263   1.403   1_545  A
C263        C264   1.399       .  A
C263        H270   1.084       .  S
C264        S266   1.804       .  S
S265        H268   1.403       .  S
S266        H267   1.407       .  S
C271        C272   1.402   1_545  A
C271        C276   1.411       .  A
C272        C273   1.401       .  A
C272        H281   1.084       .  S
C273        C274   1.413   1_565  A
C273        S277   1.805       .  S
C274        C275   1.402       .  A
C275        C276   1.397       .  A
C275        H282   1.084       .  S
C276        S278   1.804       .  S
S277        H280   1.405       .  S
S278        H279   1.406       .  S
C283        C284   1.405       .  A
C283        C288   1.414   1_545  A
C284        C285   1.399       .  A
C284        H293   1.084       .  S
C285        C286   1.414       .  A
C285        S289   1.807       .  S
C286        C287   1.403   1_545  A
C287        C288   1.399       .  A
C287        H294   1.084       .  S
C288        S290   1.804       .  S
S289        H292   1.401       .  S
S290        H291   1.407       .  S
C295        C296   1.403       .  A
C295        C300   1.412   1_545  A
C296        C297   1.403       .  A
C296        H305   1.084       .  S
C297        C298   1.414       .  A
C297        S301   1.804       .  S
C298        C299   1.402   1_545  A
C299        C300   1.396       .  A
C299        H306   1.084       .  S
C300        S302   1.805       .  S
S301        H304   1.406       .  S
S302        H303   1.406       .  S
C307        C308   1.402   1_545  A
C307        C312   1.413       .  A
C308        C309   1.399       .  A
C308        H317   1.084       .  S
C309        C310   1.411   1_565  A
C309        S313   1.803       .  S
C310        C311   1.402       .  A
C311        C312   1.401       .  A
C311        H318   1.084       .  S
C312        S314   1.805       .  S
S313        H316   1.405       .  S
S314        H315   1.403       .  S
C319        C320   1.402   1_545  A
C319        C324   1.413       .  A
C320        C321   1.396       .  A
C320        H329   1.084       .  S
C321        C322   1.412   1_565  A
C321        S325   1.805       .  S
C322        C323   1.403       .  A
C323        C324   1.402       .  A
C323        H330   1.084       .  S
C324        S326   1.804       .  S
S325        H328   1.407       .  S
S326        H327   1.406       .  S
C331        C332   1.404       .  A
C331        C336   1.411       .  A
C332        C333   1.403   1_545  A
C332        H341   1.084   1_545  S
C333        C334   1.414   1_565  A
C333        S337   1.804       .  S
C334        C335   1.403       .  A
C335        C336   1.396       .  A
C335        H342   1.084       .  S
C336        S338   1.805       .  S
S337        H340   1.406       .  S
S338        H339   1.407       .  S
C343        C344   1.402       .  A
C343        C348   1.412   1_545  A
C344        C345   1.400       .  A
C344        H353   1.084       .  S
C345        C346   1.412       .  A
C345        S349   1.805       .  S
C346        C347   1.401   1_545  A
C347        C348   1.398       .  A
C347        H354   1.084       .  S
C348        S350   1.802       .  S
S349        H352   1.404       .  S
S350        H351   1.403       .  S
C355        C356   1.399   1_554  A
C355        C360   1.412       .  A
C356        C357   1.396       .  A
C356        H365   1.080       .  S
C357        C358   1.412   1_556  A
C357        S361   1.805       .  S
C358        C359   1.403       .  A
C359        C360   1.401       .  A
C359        H366   1.084       .  S
C360        S362   1.805       .  S
S361        H364   1.406       .  S
S362        H363   1.406       .  S
C367        C368   1.402   1_554  A
C367        C372   1.413       .  A
C368        C369   1.398       .  A
C368        H377   1.084       .  S
C369        C370   1.412       .  A
C369        S373   1.804       .  S
C370        C371   1.402   1_556  A
C371        C372   1.401       .  A
C371        H378   1.084       .  S
C372        S374   1.803       .  S
S373        H376   1.406       .  S
S374        H375   1.403       .  S
C379        C380   1.404   1_556  A
C379        C384   1.414       .  A
C380        C381   1.399       .  A
C380        H389   1.084       .  S
C381        C382   1.414       .  A
C381        S385   1.806       .  S
C382        C383   1.403   1_554  A
C383        C384   1.398       .  A
C383        H390   1.084       .  S
C384        S386   1.804       .  S
S385        H388   1.403       .  S
S386        H387   1.406       .  S
C391        C392   1.402   1_554  A
C391        C396   1.411       .  A
C392        C393   1.401       .  A
C392        H401   1.084       .  S
C393        C394   1.414   1_556  A
C393        S397   1.803       .  S
C394        C395   1.402       .  A
C395        C396   1.397       .  A
C395        H402   1.084       .  S
C396        S398   1.804       .  S
S397        H400   1.405       .  S
S398        H399   1.407       .  S
C403        C404   1.401   1_556  A
C403        C408   1.413       .  A
C404        C405   1.397       .  A
C404        H413   1.084       .  S
C405        C406   1.410   1_554  A
C405        S409   1.800       .  S
C406        C407   1.402       .  A
C407        C408   1.401       .  A
C407        H414   1.084       .  S
C408        S410   1.804       .  S
S409        H412   1.405       .  S
S410        H411   1.405       .  S
C415        C416   1.402   1_556  A
C415        C420   1.411       .  A
C416        C417   1.402       .  A
C416        H425   1.084       .  S
C417        C418   1.414       .  A
C417        S421   1.806       .  S
C418        C419   1.401   1_554  A
C419        C420   1.395       .  A
C419        H426   1.084       .  S
C420        S422   1.803       .  S
S421        H424   1.404       .  S
S422        H423   1.406       .  S
C427        C428   1.406   1_556  A
C427        C432   1.414       .  A
C428        C429   1.404       .  A
C428        H437   1.084       .  S
C429        C430   1.413   1_554  A
C429        S433   1.803       .  S
C430        C431   1.402       .  A
C431        C432   1.398       .  A
C431        H438   1.083       .  S
C432        S434   1.808       .  S
S433        H436   1.405       .  S
S434        H435   1.407       .  S
C439        C440   1.405   1_554  A
C439        C444   1.415       .  A
C440        C441   1.399       .  A
C440        H449   1.084       .  S
C441        C442   1.414   1_556  A
C441        S445   1.807       .  S
C442        C443   1.402       .  A
C443        C444   1.399       .  A
C443        H450   1.084       .  S
C444        S446   1.804       .  S
S445        H448   1.403       .  S
S446        H447   1.407       .  S
