geometry optimzed in LAMMPS
_audit_creation_date              2020-11-30 
_audit_creation_method            'lammps2cif' 
_symmetry_space_group_name_H-M    'P1' 
_symmetry_Int_Tables_number       1 
_symmetry_cell_setting            triclinic 
loop_ 
_symmetry_equiv_pos_as_xyz 
  x,y,z 
_cell_length_a                    25.43044261546699 
_cell_length_b                    25.329297792924997 
_cell_length_c                    25.394840756691224 
_cell_angle_alpha                 90.12997904634999 
_cell_angle_beta                  89.95841574081314 
_cell_angle_gamma                 89.93368824489355 
loop_ 
_atom_site_label 
_atom_site_type_symbol 
_atom_site_fract_x 
_atom_site_fract_y 
_atom_site_fract_z 
_atom_site_charge 
C1          C  0.72812791  0.73122372  0.99723940     0.03530
C2          C  0.74065432  0.67674779  0.99582309    -0.12620
C3          C  0.70061770  0.63863602  0.99350806     0.01030
C4          C  0.64808915  0.65501049  0.99576505    -0.11400
C5          C  0.63502443  0.70845117  0.99731359     0.03520
C6          C  0.67472752  0.74647307  0.99631438    -0.10570
H7          H  0.78123465  0.66383354  0.99595505     0.09120
H8          H  0.61686125  0.62586297  0.99596184     0.06640
H9          H  0.66361619  0.78768876  0.99481581     0.06490
C10         C  0.72932181  0.32161452  0.00436769     0.03530
C11         C  0.74118889  0.37546894  0.99657008    -0.12620
C12         C  0.70120998  0.41356950  0.99815004     0.01030
C13         C  0.64944276  0.39786789  0.00811525    -0.11150
C14         C  0.63677543  0.34468839  0.01544759     0.03520
C15         C  0.67665153  0.30657554  0.01333570    -0.10570
H16         H  0.78103377  0.38770626  0.98783173     0.09120
H17         H  0.61850230  0.42735916  0.00953195     0.06640
H18         H  0.66669332  0.26550459  0.01968256     0.06490
C19         C  0.32294213  0.31871162  0.00105127     0.03530
C20         C  0.37557493  0.30448434  0.01172005    -0.12620
C21         C  0.41478610  0.34318457  0.01458343     0.01030
C22         C  0.40146472  0.39616541  0.00684120    -0.11150
C23         C  0.34957735  0.41117101  0.99669280     0.03520
C24         C  0.31037533  0.37253392  0.99376139    -0.10570
H25         H  0.38608094  0.26373906  0.01908676     0.09120
H26         H  0.43188931  0.42610741  0.00858692     0.06640
H27         H  0.27047878  0.38446639  0.98474887     0.06490
C28         C  0.31970943  0.72794863  0.99852971     0.03530
C29         C  0.37289964  0.74403860  0.99812386    -0.12620
C30         C  0.41330502  0.70666743  0.99883216     0.01030
C31         C  0.40120053  0.65304955  0.99678228    -0.11150
C32         C  0.34896058  0.63596228  0.99467094     0.03520
C33         C  0.30824080  0.67330915  0.99785862    -0.10570
H34         H  0.38327331  0.78547123  0.99744090     0.09120
H35         H  0.43289486  0.62434072  0.99654424     0.06640
H36         H  0.26804327  0.65950740  0.99937618     0.06490
C37         C  0.72959578  0.02703280  0.70376951     0.03530
C38         C  0.67634097  0.01838128  0.71709404    -0.12620
C39         C  0.63729817  0.01931341  0.67822879     0.01030
C40         C  0.65148348  0.02835362  0.62582241    -0.11150
C41         C  0.70393853  0.03657881  0.61140053     0.03520
C42         C  0.74301228  0.03574758  0.65041211    -0.10570
H43         H  0.66516474  0.00969907  0.75729051     0.09120
H44         H  0.62118679  0.02887309  0.59577583     0.06640
H45         H  0.78345892  0.04310168  0.63928049     0.06490
C46         C  0.32126135  0.02770318  0.70394759     0.03530
C47         C  0.37542885  0.02581454  0.71681209    -0.12620
C48         C  0.41352153  0.01986081  0.67716063     0.01030
C49         C  0.39750798  0.01930602  0.62450932    -0.11150
C50         C  0.34436202  0.02015884  0.61090462     0.03520
C51         C  0.30626429  0.02418878  0.65048249    -0.10570
H52         H  0.38802219  0.02769073  0.75748411     0.09120
H53         H  0.42678944  0.01680824  0.59351621     0.06640
H54         H  0.26519577  0.02231169  0.63949564     0.06490
C55         C  0.32048914  0.02840479  0.29556022     0.03530
C56         C  0.30598290  0.02329961  0.34898158    -0.12620
C57         C  0.34438797  0.01767516  0.38800506     0.01030
C58         C  0.39743009  0.01562451  0.37370709    -0.11150
C59         C  0.41290988  0.01984727  0.32105798     0.03520
C60         C  0.37453269  0.02763684  0.28219607    -0.10570
H61         H  0.26502893  0.02155931  0.36041129     0.09120
H62         H  0.42708855  0.01095003  0.40403009     0.06640
H63         H  0.38689820  0.03181470  0.24161927     0.06490
C64         C  0.72866809  0.02887437  0.29501259     0.03530
C65         C  0.74184503  0.03652897  0.34858666    -0.12620
C66         C  0.70256576  0.03689054  0.38746172     0.01030
C67         C  0.65018981  0.02850110  0.37276331    -0.11150
C68         C  0.63634358  0.02073947  0.32007938     0.03520
C69         C  0.67547626  0.02079345  0.28128149    -0.10570
H70         H  0.78227235  0.04355704  0.35999091     0.09120
H71         H  0.61970139  0.02823299  0.40266058     0.06640
H72         H  0.66440733  0.01338717  0.24077545     0.06490
C73         C  0.02728204  0.31957362  0.70576021     0.03530
C74         C  0.03211272  0.37315796  0.71968257    -0.12620
C75         C  0.03389966  0.41184857  0.68036153     0.01030
C76         C  0.02840325  0.39680220  0.62758415    -0.11150
C77         C  0.02227393  0.34373363  0.61335954     0.03520
C78         C  0.02297811  0.30487777  0.65250085    -0.10570
H79         H  0.03575907  0.38445501  0.76070475     0.09120
H80         H  0.02867053  0.42681430  0.59717334     0.06640
H81         H  0.01877089  0.26365494  0.64179110     0.06490
C82         C  0.02230877  0.72868161  0.70451809     0.03530
C83         C  0.02814077  0.67503792  0.71845119    -0.12620
C84         C  0.03327923  0.63616877  0.67934365     0.01030
C85         C  0.03286384  0.65113962  0.62632337    -0.11150
C86         C  0.02729893  0.70402139  0.61174912     0.03520
C87         C  0.02103294  0.74261700  0.65075426    -0.10570
H88         H  0.03089260  0.66362189  0.75942046     0.09120
H89         H  0.03697020  0.62127495  0.59590707     0.06640
H90         H  0.01660160  0.78351652  0.63916663     0.06490
C91         C  0.02528623  0.31988324  0.29722142     0.03530
C92         C  0.02410922  0.30535772  0.35082530    -0.12620
C93         C  0.02104483  0.34412227  0.39011088     0.01030
C94         C  0.02104543  0.39738914  0.37574502    -0.11150
C95         C  0.02166608  0.41273088  0.32287619     0.03520
C96         C  0.02470268  0.37389439  0.28354713    -0.10570
H97         H  0.02444751  0.26409566  0.36194172     0.09120
H98         H  0.01942117  0.42742048  0.40623140     0.06640
H99         H  0.02423194  0.38558549  0.24253473     0.06490
C100        C  0.02614547  0.73046105  0.29548857     0.03530
C101        C  0.02641203  0.74497741  0.34923469    -0.12620
C102        C  0.02741726  0.70624101  0.38841252     0.01030
C103        C  0.02520284  0.65301245  0.37424146    -0.11150
C104        C  0.02275037  0.63761572  0.32138141     0.03520
C105        C  0.02448263  0.67628115  0.28196615    -0.10570
H106        H  0.02606553  0.78612930  0.36083221     0.09120
H107        H  0.02513291  0.62317909  0.40483864     0.06640
H108        H  0.02391304  0.66409599  0.24106926     0.06490
O109        O  0.87582527  0.93988370  0.99982968    -0.86090
O110        O  0.17374603  0.93872498  0.00133017    -0.86260
O111        O  0.02223398  0.87594736  0.91340632    -0.87920
O112        O  0.02400569  0.87563368  0.08461095    -0.86680
O113        O  0.02753597  0.93954110  0.14881481    -0.86270
O114        O  0.02579091  0.94005676  0.84975549    -0.87640
O115        O  0.10976471  0.87495678  0.99854698    -0.86120
O116        O  0.93961779  0.87574862  0.99751665    -0.85710
Zr117      Zr  0.02477667  0.91929326  0.99912311     2.84310
O118        O  0.07819839  0.97179142  0.05295712    -1.07680
O119        O  0.97203981  0.97275362  0.94596792    -1.08410
C120        C  0.89124455  0.89122434  0.99844805     1.07020
C121        C  0.15820738  0.89014549  0.00014696     1.06960
C122        C  0.02364591  0.89146438  0.86499665     1.09940
C123        C  0.02585339  0.89098118  0.13313985     1.07720
H124        H  0.10060268  0.94974838  0.92392013     0.33280
O125        O  0.07867412  0.97181343  0.94590706    -1.28630
H126        H  0.94973492  0.95035819  0.07478563     0.32950
O127        O  0.97169671  0.97233966  0.05290347    -1.30310
O128        O  0.17439061  0.11098379  0.99746896    -0.86080
O129        O  0.87571179  0.11173267  0.99907017    -0.87580
O130        O  0.11186647  0.02806510  0.85043687    -0.86160
O131        O  0.11085843  0.02810780  0.14946881    -0.86210
O132        O  0.93964556  0.02525280  0.14945718    -0.85920
O133        O  0.94034880  0.02475602  0.84965425    -0.85730
O134        O  0.02431030  0.17597610  0.91481479    -0.86100
O135        O  0.02665327  0.17566674  0.08597716    -0.85560
O136        O  0.02799119  0.11192669  0.85057009    -0.86620
O137        O  0.02265697  0.11147262  0.14961650    -0.85780
O138        O  0.17521668  0.02515923  0.91468966    -0.86180
O139        O  0.87630925  0.02555692  0.91340703    -0.85900
O140        O  0.87587122  0.02795749  0.08560893    -0.85550
O141        O  0.17439530  0.02594909  0.08527754    -0.85960
O142        O  0.11064731  0.17515076  0.99857781    -0.86260
O143        O  0.93947721  0.17569382  0.00188982    -0.87600
Zr144      Zr  0.13113846  0.02512619  0.99979900     2.83100
Zr145      Zr  0.91901296  0.02593164  0.99957007     2.83500
Zr146      Zr  0.02580654  0.02590263  0.89330142     2.84090
Zr147      Zr  0.02517159  0.02562981  0.10602940     2.83360
Zr148      Zr  0.02505763  0.13216026  0.00017980     2.84220
O149        O  0.97178302  0.07915713  0.05329477    -1.08170
O150        O  0.07849866  0.07902041  0.94690575    -1.07670
C151        C  0.15906317  0.15966958  0.99762188     1.06990
C152        C  0.89104572  0.16032193  0.00044684     1.09610
C153        C  0.16023005  0.02699051  0.86614692     1.07160
C154        C  0.15927464  0.02750120  0.13383029     1.07520
C155        C  0.89120769  0.02677245  0.13416699     1.07110
C156        C  0.89182011  0.02490212  0.86487058     1.06660
C157        C  0.02646059  0.16038417  0.86641384     1.07080
C158        C  0.02470101  0.16005525  0.13435323     1.06600
H159        H  0.95026355  0.10132507  0.92435259     0.33280
O160        O  0.97209751  0.07927665  0.94631512    -1.29270
H161        H  0.10039738  0.10109782  0.07501040     0.33300
O162        O  0.07844289  0.07898932  0.05318682    -1.30650
C163        C  0.99626356  0.76509292  0.20784920    -0.20910
C164        C  0.02670512  0.77166237  0.25366054    -0.08950
C165        C  0.05731864  0.81781486  0.25887049     0.29910
C166        C  0.05625419  0.85662149  0.21983966    -0.20910
C167        C  0.02606237  0.84972376  0.17414065    -0.08960
C168        C  0.99630505  0.80334512  0.16823615     0.29920
F169        F  0.96595359  0.79568166  0.12493002    -0.19480
H170        H  0.97167130  0.73057788  0.20289471     0.18280
H171        H  0.08010609  0.89169950  0.22479774     0.18290
F172        F  0.08969108  0.82490028  0.30075339    -0.19470
C173        C  0.05458508  0.49678319  0.28191617    -0.20910
C174        C  0.01590457  0.46959202  0.31063303    -0.08950
C175        C  0.97499080  0.49838477  0.33449615     0.29910
C176        C  0.97550613  0.55330226  0.33389128    -0.20910
C177        C  0.01660630  0.58076259  0.30941649    -0.08960
C178        C  0.05498849  0.55227689  0.28123522     0.29920
F179        F  0.09509004  0.57787991  0.25700751    -0.19480
H180        H  0.08637624  0.47524438  0.26325586     0.18280
H181        H  0.94528457  0.57460228  0.35530270     0.18290
F182        F  0.93618586  0.47329966  0.36133540    -0.19470
C183        C  0.99089943  0.19667529  0.21895221    -0.20910
C184        C  0.02490925  0.20101426  0.17569260    -0.08950
C185        C  0.05902497  0.24449813  0.17255034     0.29910
C186        C  0.05911057  0.28288107  0.21219983    -0.20910
C187        C  0.02498906  0.27874125  0.25551491    -0.08960
C188        C  0.99040381  0.23539428  0.25825883     0.29920
F189        F  0.95490881  0.23127874  0.29797971    -0.19480
H190        H  0.96387958  0.16375090  0.22173143     0.18280
H191        H  0.08638079  0.31557767  0.20940864     0.18290
F192        F  0.09351912  0.24892150  0.13208099    -0.19470
C193        C  0.07605660  0.70216525  0.52742142    -0.20910
C194        C  0.03100000  0.71763468  0.55537941    -0.08950
C195        C  0.98771602  0.73829439  0.52780802     0.29910
C196        C  0.98818192  0.73913818  0.47256538    -0.20910
C197        C  0.03181074  0.71953404  0.44476553    -0.08960
C198        C  0.07653903  0.70304461  0.47259082     0.29920
F199        F  0.11925164  0.68413348  0.44653644    -0.19480
H200        H  0.10979327  0.68634330  0.54814178     0.18280
H201        H  0.95320309  0.75138106  0.45154063     0.18290
F202        F  0.94351340  0.75309319  0.55396080    -0.19470
C203        C  0.99449299  0.80338067  0.83179309    -0.20910
C204        C  0.02283145  0.85023847  0.82377568    -0.08950
C205        C  0.05032549  0.85708315  0.77625771     0.29910
C206        C  0.04985684  0.81746566  0.73795206    -0.20910
C207        C  0.02129549  0.77056675  0.74566228    -0.08960
C208        C  0.99312622  0.76412271  0.79300494     0.29920
F209        F  0.96316436  0.72062679  0.80137597    -0.19480
H210        H  0.97255835  0.79753573  0.86784559     0.18280
H211        H  0.07279065  0.82319699  0.70248358     0.18290
F212        F  0.07915020  0.90128752  0.76747488    -0.19470
C213        C  0.05262687  0.30165280  0.52933347    -0.20910
C214        C  0.01463032  0.33081642  0.55717441    -0.08950
C215        C  0.97377597  0.35553841  0.52940237     0.29910
C216        C  0.97378716  0.35537028  0.47462322    -0.20910
C217        C  0.01467893  0.33096290  0.44648141    -0.08960
C218        C  0.05273191  0.30165189  0.47404403     0.29920
F219        F  0.09249540  0.27727843  0.44786161    -0.19480
H220        H  0.08441250  0.28244493  0.55025407     0.18280
H221        H  0.94365339  0.37745035  0.45402444     0.18290
F222        F  0.93598114  0.38320029  0.55534251    -0.19470
C223        C  0.08126284  0.55153942  0.66767286    -0.20910
C224        C  0.04029471  0.57957876  0.69210282    -0.08950
C225        C  0.00230701  0.55167790  0.72118091     0.29910
C226        C  0.00279910  0.49626569  0.72137939    -0.20910
C227        C  0.04106588  0.46845916  0.69258132    -0.08960
C228        C  0.08167330  0.49654585  0.66774765     0.29920
F229        F  0.11976855  0.47066462  0.64046323    -0.19480
H230        H  0.11124582  0.57234333  0.64562294     0.18280
H231        H  0.97109912  0.47517671  0.74052958     0.18290
F232        F  0.96213247  0.57766294  0.74510645    -0.19470
C233        C  0.07120106  0.24672353  0.75430030    -0.20910
C234        C  0.02688155  0.27884378  0.74692953    -0.08950
C235        C  0.98246272  0.27194651  0.77903593     0.29910
C236        C  0.98269642  0.23351887  0.81847514    -0.20910
C237        C  0.02696983  0.20131464  0.82573017    -0.08960
C238        C  0.07132317  0.20809534  0.79352705     0.29920
F239        F  0.11501129  0.17816899  0.80088817    -0.19480
H240        H  0.10575485  0.25191734  0.72988519     0.18280
H241        H  0.94812124  0.22830708  0.84286864     0.18290
F242        F  0.93869974  0.30171031  0.77149827    -0.19470
C243        C  0.81919747  0.00469438  0.26346248    -0.20910
C244        C  0.77036778  0.02888874  0.25367200    -0.08950
C245        C  0.76204103  0.05276252  0.20423428     0.29910
C246        C  0.80121739  0.05134754  0.16557315    -0.20910
C247        C  0.84998253  0.02728282  0.17549988    -0.08960
C248        C  0.85872830  0.00417023  0.22512622     0.29920
F249        F  0.90495654  0.97978929  0.23628134    -0.19480
H250        H  0.82664850  0.98537816  0.30071798     0.18280
H251        H  0.79372627  0.07017944  0.12805564     0.18290
F252        F  0.71675271  0.07905005  0.19361236    -0.19470
C253        C  0.49758297  0.97146372  0.32854984    -0.20910
C254        C  0.46952790  0.01468727  0.30828118    -0.08950
C255        C  0.49722333  0.05554969  0.28315700     0.29910
C256        C  0.55238561  0.05506109  0.28259146    -0.20910
C257        C  0.58019745  0.01396553  0.30709018    -0.08960
C258        C  0.55241004  0.97111424  0.32818621     0.29920
F259        F  0.57840497  0.93071082  0.35172058    -0.19480
H260        H  0.47691226  0.93936826  0.34762170     0.18280
H261        H  0.57334743  0.08865852  0.26670069     0.18290
F262        F  0.47129956  0.09809043  0.26367647    -0.19470
C263        C  0.28821875  0.00510084  0.20517157    -0.20910
C264        C  0.27944799  0.03068906  0.25360559    -0.08950
C265        C  0.23083538  0.05656706  0.26154090     0.29910
C266        C  0.19174070  0.05475576  0.22280901    -0.20910
C267        C  0.20077493  0.02895293  0.17466119    -0.08960
C268        C  0.24993313  0.00506617  0.16587457     0.29920
F269        F  0.26075089  0.98037723  0.11974837    -0.19480
H270        H  0.32450289  0.98398830  0.19773645     0.18280
H271        H  0.15467198  0.07460841  0.23006790     0.18290
F272        F  0.22128598  0.08485104  0.30597878    -0.19470
C273        C  0.30690200  0.05530098  0.52692604    -0.20910
C274        C  0.33044185  0.01375707  0.55485503    -0.08950
C275        C  0.34957395  0.96963005  0.52721115     0.29910
C276        C  0.34968305  0.96929041  0.47240222    -0.20910
C277        C  0.33063623  0.01281878  0.44424993    -0.08960
C278        C  0.30693551  0.05490120  0.47168359     0.29920
F279        F  0.28853929  0.09764073  0.44529133    -0.19480
H280        H  0.29232971  0.08972895  0.54771543     0.18280
H281        H  0.36784164  0.93647411  0.45181474     0.18290
F282        F  0.37188986  0.92862812  0.55335099    -0.19470
C283        C  0.19365901  0.05563689  0.77822517    -0.20910
C284        C  0.20178037  0.02795890  0.82533690    -0.08950
C285        C  0.24989772  0.00164254  0.83300098     0.29910
C286        C  0.28832404  0.00192204  0.79362395    -0.20910
C287        C  0.28041717  0.02953826  0.74622980    -0.08960
C288        C  0.23269066  0.05724866  0.73941943     0.29920
F289        F  0.22397771  0.08706676  0.69595030    -0.19480
H290        H  0.15730836  0.07701265  0.77182901     0.18280
H291        H  0.32391303  0.97935922  0.79999622     0.18290
F292        F  0.25923198  0.97407730  0.87783056    -0.19470
C293        C  0.68681258  0.08352938  0.52737268    -0.20910
C294        C  0.71593094  0.04547230  0.55495696    -0.08950
C295        C  0.74857362  0.01065446  0.52656669     0.29910
C296        C  0.74784204  0.01081343  0.47125267    -0.20910
C297        C  0.71455441  0.04559362  0.44393725    -0.08960
C298        C  0.68602068  0.08366080  0.47248266     0.29920
F299        F  0.65454444  0.11875460  0.44722853    -0.19480
H300        H  0.66183329  0.11104216  0.54851386     0.18280
H301        H  0.77005308  0.98115470  0.44993334     0.18290
F302        F  0.77713175  0.97334493  0.55206838    -0.19470
C303        C  0.55327833  0.97245954  0.66272584    -0.20910
C304        C  0.58100869  0.01129095  0.69052981    -0.08950
C305        C  0.55302555  0.04748481  0.72200936     0.29910
C306        C  0.49779111  0.04803259  0.72101015    -0.20910
C307        C  0.47023464  0.01228122  0.68887406    -0.08960
C308        C  0.49853297  0.97257520  0.66213329     0.29920
F309        F  0.47322326  0.93567007  0.63272769    -0.19480
H310        H  0.57421059  0.94385643  0.63878920     0.18280
H311        H  0.47682198  0.07863310  0.74225118     0.18290
F312        F  0.57897321  0.08511760  0.74981077    -0.19470
C313        C  0.80124363  0.04755562  0.83405705    -0.20910
C314        C  0.85061559  0.02495359  0.82353574    -0.08950
C315        C  0.85997868  0.00317279  0.77331537     0.29910
C316        C  0.82049713  0.00365322  0.73495326    -0.20910
C317        C  0.77111028  0.02657762  0.74529466    -0.08960
C318        C  0.76213916  0.04901031  0.79540870     0.29920
F319        F  0.71630468  0.07408614  0.80675192    -0.19480
H320        H  0.79320821  0.06534262  0.87205041     0.18280
H321        H  0.82849787  0.98539385  0.69719167     0.18290
F322        F  0.90683100  0.98026173  0.76151940    -0.19470
C323        C  0.19006295  0.80034042  0.97442625    -0.20910
C324        C  0.19902276  0.84849208  0.00037299    -0.08950
C325        C  0.24719708  0.85626517  0.02620367     0.29910
C326        C  0.28504857  0.81638390  0.02686192    -0.20910
C327        C  0.27699309  0.76848045  0.99982064    -0.08960
C328        C  0.22879287  0.76107511  0.97322084     0.29920
F329        F  0.21955902  0.71712486  0.94405839    -0.19480
H330        H  0.15352881  0.79368781  0.95353320     0.18280
H331        H  0.32082901  0.82329916  0.04885369     0.18290
F332        F  0.25757196  0.90212006  0.05166408    -0.19470
C333        C  0.30770054  0.55141185  0.02531794    -0.20910
C334        C  0.33860370  0.57878688  0.98853964    -0.08950
C335        C  0.36533500  0.55018160  0.94920104     0.29910
C336        C  0.36520610  0.49521459  0.94975035    -0.20910
C337        C  0.33803137  0.46774468  0.98907534    -0.08960
C338        C  0.30735018  0.49601990  0.02562539     0.29920
F339        F  0.28086596  0.47024985  0.06419484    -0.19480
H340        H  0.28682793  0.57276455  0.05586994     0.18280
H341        H  0.38874801  0.47395006  0.92111138     0.18290
F342        F  0.39398913  0.57551498  0.91187255    -0.19470
C343        C  0.25016087  0.18968691  0.97592105    -0.20910
C344        C  0.20032741  0.20087984  0.99711181    -0.08950
C345        C  0.19081230  0.25143443  0.01819001     0.29910
C346        C  0.23085875  0.28903116  0.01966698    -0.20910
C347        C  0.28087764  0.27791291  0.99874759    -0.08960
C348        C  0.28981861  0.22787689  0.97594336     0.29920
F349        F  0.33625126  0.21613382  0.95226048    -0.19480
H350        H  0.25823911  0.15148272  0.95841916     0.18280
H351        H  0.22272318  0.32680209  0.03800016     0.18290
F352        F  0.14319793  0.26439855  0.03856549    -0.19470
C353        C  0.49849375  0.30041041  0.98598532    -0.20910
C354        C  0.47055759  0.32980056  0.02371981    -0.08950
C355        C  0.49818276  0.35506398  0.06447554     0.29910
C356        C  0.55299718  0.35541573  0.06433170    -0.20910
C357        C  0.58106016  0.33052831  0.02367646    -0.08960
C358        C  0.55361043  0.30075937  0.98584617     0.29920
F359        F  0.57978055  0.27678698  0.94577421    -0.19480
H360        H  0.47775565  0.28106757  0.95409140     0.18280
H361        H  0.57359701  0.37833702  0.09388563     0.18290
F362        F  0.47205124  0.38294226  0.10200180    -0.19470
C363        C  0.76230118  0.23235232  0.97723933    -0.20910
C364        C  0.77147129  0.28090092  0.00256359    -0.08950
C365        C  0.82063304  0.28951672  0.02663591     0.29910
C366        C  0.85947508  0.25045262  0.02508645    -0.20910
C367        C  0.84992549  0.20168894  0.00047618    -0.08960
C368        C  0.80083523  0.19300144  0.97641813     0.29920
F369        F  0.79034158  0.14694343  0.95109830    -0.19480
H370        H  0.72523940  0.22490030  0.95761637     0.18280
H371        H  0.89672100  0.25791377  0.04438217     0.18290
F372        F  0.83063278  0.33482186  0.05343376    -0.19470
C373        C  0.49598606  0.73566289  0.95549260    -0.20910
C374        C  0.46892647  0.72210893  0.00166187    -0.08950
C375        C  0.49713322  0.71293540  0.04823484     0.29910
C376        C  0.55197069  0.71338354  0.04758706    -0.20910
C377        C  0.57915066  0.72299075  0.00054687    -0.08960
C378        C  0.55102017  0.73607311  0.95484738     0.29920
F379        F  0.57667315  0.74436413  0.90872458    -0.19480
H380        H  0.47460833  0.74192643  0.91915390     0.18280
H381        H  0.57329885  0.70261919  0.08289922     0.18290
F382        F  0.47162393  0.69940267  0.09319795    -0.19470
C383        C  0.68338058  0.55254737  0.95000922    -0.20910
C384        C  0.71166340  0.58140516  0.98783099    -0.08950
C385        C  0.74404175  0.55410868  0.02355476     0.29910
C386        C  0.74412304  0.49867955  0.02413906    -0.20910
C387        C  0.71185727  0.47022179  0.98931895    -0.08960
C388        C  0.68318781  0.49758931  0.95081848     0.29920
F389        F  0.65244192  0.47111453  0.91596058    -0.19480
H390        H  0.65890672  0.57277593  0.92153722     0.18280
H391        H  0.76633049  0.47812130  0.05416678     0.18290
F392        F  0.77187368  0.58071862  0.06063673    -0.19470
C393        C  0.81805830  0.76359948  0.97161010    -0.20910
C394        C  0.77043163  0.77205429  0.99865376    -0.08950
C395        C  0.76382204  0.81993541  0.02656550     0.29910
C396        C  0.80288394  0.85863558  0.02548382    -0.20910
C397        C  0.85020629  0.84996807  0.99845606    -0.08960
C398        C  0.85784746  0.80161889  0.97218579     0.29920
F399        F  0.90319865  0.79154187  0.94581309    -0.19480
H400        H  0.82446336  0.72780422  0.94914933     0.18280
H401        H  0.79661626  0.89506176  0.04705629     0.18290
F402        F  0.72050257  0.82903782  0.05648308    -0.19470
loop_ 
_geom_bond_atom_site_label_1 
_geom_bond_atom_site_label_2 
_geom_bond_distance 
_geom_bond_site_symmetry_2 
_ccdc_geom_bond_type 
C1            C2   1.416       .  A
C1            C6   1.412       .  A
C1          C394   1.494       .  S
C2            C3   1.405       .  A
C2            H7   1.082       .  S
C3            C4   1.399       .  A
C3          C384   1.483       .  S
C4            C5   1.394       .  A
C4            H8   1.085       .  S
C5            C6   1.396       .  A
C5          C377   1.470   1_556  S
C6            H9   1.082       .  S
C10          C11   1.412   1_554  A
C10          C15   1.411       .  A
C10         C364   1.487       .  S
C11          C12   1.401       .  A
C11          H16   1.083       .  S
C12          C13   1.399   1_556  A
C12         C387   1.478       .  S
C13          C14   1.398       .  A
C13          H17   1.085       .  S
C14          C15   1.400       .  A
C14         C357   1.477       .  S
C15          H18   1.083       .  S
C19          C20   1.412       .  A
C19          C24   1.413   1_554  A
C19         C347   1.489   1_554  S
C20          C21   1.401       .  A
C20          H25   1.083       .  S
C21          C22   1.398       .  A
C21         C354   1.476       .  S
C22          C23   1.397   1_554  A
C22          H26   1.085       .  S
C23          C24   1.400       .  A
C23         C337   1.476       .  S
C24          H27   1.083       .  S
C28          C29   1.413       .  A
C28          C33   1.415       .  A
C28         C327   1.494       .  S
C29          C30   1.396       .  A
C29          H34   1.083       .  S
C30          C31   1.394       .  A
C30         C374   1.470   1_556  S
C31          C32   1.399       .  A
C31          H35   1.085       .  S
C32          C33   1.404       .  A
C32         C334   1.480       .  S
C33          H36   1.081       .  S
C37          C38   1.413       .  A
C37          C42   1.415       .  A
C37         C317   1.493       .  S
C38          C39   1.401       .  A
C38          H43   1.083       .  S
C39          C40   1.398       .  A
C39         C304   1.479       .  S
C40          C41   1.399       .  A
C40          H44   1.085       .  S
C41          C42   1.404       .  A
C41         C294   1.483       .  S
C42          H45   1.083       .  S
C46          C47   1.417       .  A
C46          C51   1.413       .  A
C46         C287   1.494       .  S
C47          C48   1.405       .  A
C47          H52   1.083       .  S
C48          C49   1.398       .  A
C48         C307   1.485       .  S
C49          C50   1.395       .  A
C49          H53   1.085       .  S
C50          C51   1.399       .  A
C50         C274   1.476       .  S
C51          H54   1.082       .  S
C55          C56   1.412       .  A
C55          C60   1.415       .  A
C55         C264   1.493       .  S
C56          C57   1.399       .  A
C56          H61   1.082       .  S
C57          C58   1.398       .  A
C57         C277   1.476       .  S
C58          C59   1.398       .  A
C58          H62   1.085       .  S
C59          C60   1.403       .  A
C59         C254   1.481       .  S
C60          H63   1.083       .  S
C64          C65   1.414       .  A
C64          C69   1.412       .  A
C64         C244   1.492       .  S
C65          C66   1.404       .  A
C65          H70   1.083       .  S
C66          C67   1.400       .  A
C66         C297   1.482       .  S
C67          C68   1.397       .  A
C67          H71   1.085       .  S
C68          C69   1.400       .  A
C68         C257   1.476       .  S
C69          H72   1.083       .  S
C73          C74   1.407       .  A
C73          C78   1.406       .  A
C73         C234   1.471       .  S
C74          C75   1.401       .  A
C74          H79   1.084       .  S
C75          C76   1.400       .  A
C75         C227   1.478       .  S
C76          C77   1.400       .  A
C76          H80   1.085       .  S
C77          C78   1.400       .  A
C77         C214   1.476       .  S
C78          H81   1.084       .  S
C82          C83   1.413       .  A
C82          C87   1.411       .  A
C82         C207   1.488       .  S
C83          C84   1.403       .  A
C83          H88   1.083       .  S
C84          C85   1.400       .  A
C84         C224   1.481       .  S
C85          C86   1.398       .  A
C85          H89   1.085       .  S
C86          C87   1.399       .  A
C86         C194   1.476       .  S
C87          H90   1.083       .  S
C91          C92   1.411       .  A
C91          C96   1.412       .  A
C91         C187   1.484       .  S
C92          C93   1.400       .  A
C92          H97   1.083       .  S
C93          C94   1.398       .  A
C93         C217   1.479       .  S
C94          C95   1.399       .  A
C94          H98   1.085       .  S
C95          C96   1.402       .  A
C95         C174   1.481       .  S
C96          H99   1.084       .  S
C100        C101   1.413       .  A
C100        C105   1.415       .  A
C100        C164   1.491       .  S
C101        C102   1.399       .  A
C101        H106   1.083       .  S
C102        C103   1.396       .  A
C102        C197   1.474       .  S
C103        C104   1.398       .  A
C103        H107   1.085       .  S
C104        C105   1.403       .  A
C104        C177   1.480       .  S
C105        H108   1.083       .  S
O109       Zr145   2.442   1_565  S
O109        C120   1.293       .  A
O110       Zr144   2.441   1_564  S
O110        C121   1.293       .  A
O111       Zr117   2.437       .  S
O111        C122   1.292       .  A
O112       Zr117   2.439   1_554  S
O112        C123   1.292       .  A
O113       Zr147   2.439   1_565  S
O113        C123   1.293       .  A
O114       Zr146   2.437   1_565  S
O114        C122   1.292       .  A
O115       Zr117   2.434       .  S
O115        C121   1.292   1_556  A
O116       Zr117   2.432   1_655  S
O116        C120   1.291       .  A
Zr117       O118   2.341   1_556  S
Zr117       O119   2.337   1_455  S
Zr117       O127   2.340   1_456  S
Zr117       O125   2.342       .  S
O118       Zr144   2.339   1_564  S
O118       Zr147   2.341   1_565  S
O119       Zr145   2.339   1_565  S
O119       Zr146   2.341   1_665  S
C120        C397   1.478       .  S
C121        C324   1.479       .  S
C122        C204   1.477       .  S
C123        C167   1.477       .  S
H124        O125   0.966       .  S
O125       Zr144   2.340   1_565  S
O125       Zr146   2.340   1_565  S
H126        O127   0.966       .  S
O127       Zr145   2.341   1_564  S
O127       Zr147   2.343   1_665  S
O128       Zr144   2.439       .  S
O128        C151   1.293       .  A
O129       Zr145   2.435       .  S
O129        C152   1.292   1_556  A
O130       Zr146   2.444       .  S
O130        C153   1.294       .  A
O131       Zr147   2.444       .  S
O131        C154   1.293       .  A
O132       Zr147   2.438   1_655  S
O132        C155   1.292       .  A
O133       Zr146   2.440   1_655  S
O133        C156   1.293       .  A
O134       Zr148   2.438   1_556  S
O134        C157   1.291       .  A
O135       Zr148   2.440       .  S
O135        C158   1.292       .  A
O136       Zr146   2.437       .  S
O136        C157   1.291       .  A
O137       Zr147   2.438       .  S
O137        C158   1.292       .  A
O138       Zr144   2.434       .  S
O138        C153   1.291       .  A
O139       Zr145   2.443       .  S
O139        C156   1.294       .  A
O140       Zr145   2.445   1_554  S
O140        C155   1.294       .  A
O141       Zr144   2.434   1_554  S
O141        C154   1.292       .  A
O142       Zr148   2.435   1_556  S
O142        C151   1.292       .  A
O143       Zr148   2.439   1_655  S
O143        C152   1.293       .  A
Zr144       O150   2.338       .  S
Zr144       O162   2.341   1_556  S
Zr145       O149   2.341   1_556  S
Zr145       O160   2.342       .  S
Zr146       O150   2.336       .  S
Zr146       O160   2.343   1_455  S
Zr147       O149   2.341   1_455  S
Zr147       O162   2.339       .  S
Zr148       O149   2.338   1_455  S
Zr148       O150   2.340   1_554  S
Zr148       O162   2.340       .  S
Zr148       O160   2.340   1_454  S
C151        C344   1.481       .  S
C152        C367   1.479       .  S
C153        C284   1.480       .  S
C154        C267   1.480       .  S
C155        C247   1.483       .  S
C156        C314   1.484       .  S
C157        C237   1.465       .  S
C158        C184   1.474       .  S
H159        O160   0.966       .  S
H161        O162   0.966       .  S
C163        C164   1.408   1_655  A
C163        C168   1.398       .  A
C163        H170   1.083       .  S
C164        C165   1.411       .  A
C165        C166   1.398       .  A
C165        F172   1.357       .  S
C166        C167   1.403       .  A
C166        H171   1.084       .  S
C167        C168   1.406   1_455  A
C168        F169   1.358       .  S
C173        C174   1.406       .  A
C173        C178   1.406       .  A
C173        H180   1.083       .  S
C174        C175   1.406   1_455  A
C175        C176   1.391       .  A
C175        F182   1.358       .  S
C176        C177   1.402   1_655  A
C176        H181   1.084       .  S
C177        C178   1.407       .  A
C178        F179   1.357       .  S
C183        C184   1.402   1_655  A
C183        C188   1.398       .  A
C183        H190   1.084       .  S
C184        C185   1.405       .  A
C185        C186   1.398       .  A
C185        F192   1.356       .  S
C186        C187   1.405       .  A
C186        H191   1.083       .  S
C187        C188   1.409   1_455  A
C188        F189   1.357       .  S
C193        C194   1.403       .  A
C193        C198   1.393       .  A
C193        H200   1.084       .  S
C194        C195   1.406   1_455  A
C195        C196   1.403       .  A
C195        F202   1.357       .  S
C196        C197   1.404   1_655  A
C196        H201   1.083       .  S
C197        C198   1.403       .  A
C198        F199   1.358       .  S
C203        C204   1.404   1_655  A
C203        C208   1.399       .  A
C203        H210   1.082       .  S
C204        C205   1.405       .  A
C205        C206   1.396       .  A
C205        F212   1.358       .  S
C206        C207   1.407       .  A
C206        H211   1.083       .  S
C207        C208   1.409   1_455  A
C208        F209   1.357       .  S
C213        C214   1.405       .  A
C213        C218   1.404       .  A
C213        H220   1.083       .  S
C214        C215   1.404   1_455  A
C215        C216   1.391       .  A
C215        F222   1.358       .  S
C216        C217   1.403   1_655  A
C216        H221   1.084       .  S
C217        C218   1.407       .  A
C218        F219   1.357       .  S
C223        C224   1.404       .  A
C223        C228   1.393       .  A
C223        H230   1.084       .  S
C224        C225   1.407       .  A
C225        C226   1.404       .  A
C225        F232   1.357   1_455  S
C226        C227   1.405       .  A
C226        H231   1.083   1_455  S
C227        C228   1.405       .  A
C228        F229   1.358       .  S
C233        C234   1.402       .  A
C233        C238   1.398       .  A
C233        H240   1.083       .  S
C234        C235   1.404   1_455  A
C235        C236   1.398       .  A
C235        F242   1.357       .  S
C236        C237   1.402   1_655  A
C236        H241   1.084       .  S
C237        C238   1.404       .  A
C238        F239   1.358       .  S
C243        C244   1.407       .  A
C243        C248   1.399       .  A
C243        H250   1.083   1_545  S
C244        C245   1.411       .  A
C245        C246   1.399       .  A
C245        F252   1.357       .  S
C246        C247   1.404       .  A
C246        H251   1.083       .  S
C247        C248   1.409       .  A
C248        F249   1.358   1_545  S
C253        C254   1.405   1_565  A
C253        C258   1.394       .  A
C253        H260   1.084       .  S
C254        C255   1.407       .  A
C255        C256   1.403       .  A
C255        F262   1.357       .  S
C256        C257   1.405       .  A
C256        H261   1.083       .  S
C257        C258   1.403   1_545  A
C258        F259   1.358       .  S
C263        C264   1.407       .  A
C263        C268   1.395       .  A
C263        H270   1.082   1_545  S
C264        C265   1.413       .  A
C265        C266   1.400       .  A
C265        F272   1.357       .  S
C266        C267   1.404       .  A
C266        H271   1.083       .  S
C267        C268   1.406       .  A
C268        F269   1.354   1_545  S
C273        C274   1.404       .  A
C273        C278   1.403       .  A
C273        H280   1.083       .  S
C274        C275   1.405   1_545  A
C275        C276   1.392       .  A
C275        F282   1.358       .  S
C276        C277   1.401   1_565  A
C276        H281   1.084       .  S
C277        C278   1.407       .  A
C278        F279   1.357       .  S
C283        C284   1.403       .  A
C283        C288   1.399       .  A
C283        H290   1.083       .  S
C284        C285   1.407       .  A
C285        C286   1.398       .  A
C285        F292   1.358   1_545  S
C286        C287   1.408       .  A
C286        H291   1.082   1_545  S
C287        C288   1.412       .  A
C288        F289   1.357       .  S
C293        C294   1.404       .  A
C293        C298   1.394       .  A
C293        H300   1.084       .  S
C294        C295   1.408       .  A
C295        C296   1.405       .  A
C295        F302   1.357   1_545  S
C296        C297   1.406       .  A
C296        H301   1.083   1_545  S
C297        C298   1.406       .  A
C298        F299   1.358       .  S
C303        C304   1.401   1_565  A
C303        C308   1.392       .  A
C303        H310   1.084       .  S
C304        C305   1.407       .  A
C305        C306   1.405       .  A
C305        F312   1.357       .  S
C306        C307   1.406       .  A
C306        H311   1.083       .  S
C307        C308   1.409   1_545  A
C308        F309   1.358       .  S
C313        C314   1.405       .  A
C313        C318   1.398       .  A
C313        H320   1.083       .  S
C314        C315   1.408       .  A
C315        C316   1.400       .  A
C315        F322   1.358   1_545  S
C316        C317   1.407       .  A
C316        H321   1.083   1_545  S
C317        C318   1.411       .  A
C318        F319   1.357       .  S
C323        C324   1.404   1_556  A
C323        C328   1.399       .  A
C323        H330   1.083       .  S
C324        C325   1.404       .  A
C325        C326   1.395       .  A
C325        F332   1.354       .  S
C326        C327   1.408   1_554  A
C326        H331   1.082       .  S
C327        C328   1.412       .  A
C328        F329   1.356       .  S
C333        C334   1.405   1_554  A
C333        C338   1.403       .  A
C333        H340   1.083       .  S
C334        C335   1.407       .  A
C335        C336   1.392       .  A
C335        F342   1.358       .  S
C336        C337   1.401       .  A
C336        H341   1.084       .  S
C337        C338   1.406   1_556  A
C338        F339   1.357       .  S
C343        C344   1.405       .  A
C343        C348   1.398       .  A
C343        H350   1.083       .  S
C344        C345   1.407   1_556  A
C345        C346   1.396       .  A
C345        F352   1.356       .  S
C346        C347   1.406   1_554  A
C346        H351   1.083       .  S
C347        C348   1.410       .  A
C348        F349   1.357       .  S
C353        C354   1.404   1_556  A
C353        C358   1.402       .  A
C353        H360   1.083       .  S
C354        C355   1.405       .  A
C355        C356   1.394       .  A
C355        F362   1.358       .  S
C356        C357   1.403       .  A
C356        H361   1.084       .  S
C357        C358   1.406   1_554  A
C358        F359   1.357       .  S
C363        C364   1.406   1_556  A
C363        C368   1.397       .  A
C363        H370   1.083       .  S
C364        C365   1.409       .  A
C365        C366   1.398       .  A
C365        F372   1.357       .  S
C366        C367   1.404       .  A
C366        H371   1.083       .  S
C367        C368   1.408   1_554  A
C368        F369   1.358       .  S
C373        C374   1.403   1_556  A
C373        C378   1.400       .  A
C373        H380   1.083       .  S
C374        C375   1.403       .  A
C375        C376   1.395       .  A
C375        F382   1.358       .  S
C376        C377   1.402       .  A
C376        H381   1.084       .  S
C377        C378   1.404   1_554  A
C378        F379   1.357       .  S
C383        C384   1.405       .  A
C383        C388   1.392       .  A
C383        H390   1.084       .  S
C384        C385   1.408   1_556  A
C385        C386   1.404       .  A
C385        F392   1.357       .  S
C386        C387   1.405   1_554  A
C386        H391   1.083       .  S
C387        C388   1.404       .  A
C388        F389   1.358       .  S
C393        C394   1.408       .  A
C393        C398   1.398       .  A
C393        H400   1.082       .  S
C394        C395   1.413   1_556  A
C395        C396   1.397       .  A
C395        F402   1.357       .  S
C396        C397   1.402   1_554  A
C396        H401   1.084       .  S
C397        C398   1.406       .  A
C398        F399   1.357       .  S
