geometry optimzed in LAMMPS
_audit_creation_date              2020-11-30 
_audit_creation_method            'lammps2cif' 
_symmetry_space_group_name_H-M    'P1' 
_symmetry_Int_Tables_number       1 
_symmetry_cell_setting            triclinic 
loop_ 
_symmetry_equiv_pos_as_xyz 
  x,y,z 
_cell_length_a                    45.834870499656596 
_cell_length_b                    45.85964133740595 
_cell_length_c                    26.909014270816684 
_cell_angle_alpha                 89.99403270157303 
_cell_angle_beta                  89.9957089929535 
_cell_angle_gamma                 89.08809647452384 
loop_ 
_atom_site_label 
_atom_site_type_symbol 
_atom_site_fract_x 
_atom_site_fract_y 
_atom_site_fract_z 
_atom_site_charge 
C1          C  0.37187380  0.24878919  0.24811133     0.03490
C2          C  0.35696744  0.22207947  0.24928456    -0.12660
C3          C  0.32650489  0.22185811  0.25387007     0.00990
C4          C  0.31097509  0.24830790  0.25644018    -0.11190
C5          C  0.32531879  0.27497327  0.25506378     0.03480
C6          C  0.35573263  0.27522022  0.25027329    -0.10610
H7          H  0.36894551  0.20154859  0.24808627     0.09070
H8          H  0.28738359  0.24813137  0.25968824     0.06600
H9          H  0.36674424  0.29595678  0.24973704     0.06450
C10         C  0.21084088  0.41003197  0.24675375     0.03490
C11         C  0.23729737  0.39391657  0.24883313    -0.12660
C12         C  0.23707329  0.36353342  0.25399400     0.00990
C13         C  0.21038889  0.34922324  0.25616478    -0.11190
C14         C  0.18391897  0.36472953  0.25355415     0.03480
C15         C  0.18412637  0.39513916  0.24841867    -0.10610
H16         H  0.25803560  0.40493706  0.24800529     0.09070
H17         H  0.21021252  0.32567743  0.25996581     0.06600
H18         H  0.16357758  0.40709981  0.24721892     0.06450
C19         C  0.21281731  0.08977862  0.24554233     0.03490
C20         C  0.23948003  0.10475161  0.24743254    -0.12660
C21         C  0.23956510  0.13518226  0.25219826     0.00990
C22         C  0.21304556  0.15064472  0.25381179    -0.11190
C23         C  0.18642193  0.13624368  0.25158382     0.03480
C24         C  0.18630260  0.10583328  0.24698211    -0.10610
H25         H  0.26006637  0.09283970  0.24685575     0.09070
H26         H  0.21313137  0.17421413  0.25725561     0.06600
H27         H  0.16559589  0.09475615  0.24611991     0.06450
C28         C  0.05172160  0.25112389  0.24759941     0.03490
C29         C  0.06666859  0.27779392  0.24937281    -0.12660
C30         C  0.09713520  0.27792005  0.25376387     0.00990
C31         C  0.11265058  0.25143794  0.25526129    -0.11190
C32         C  0.09825377  0.22481130  0.25337400     0.03480
C33         C  0.06782544  0.22465055  0.24892018    -0.10610
H34         H  0.05472367  0.29835288  0.24882337     0.09070
H35         H  0.13625159  0.25155764  0.25829371     0.06600
H36         H  0.05677928  0.20393613  0.24802898     0.06450
O37         O  0.43763746  0.25174172  0.07156283    -0.72590
O38         O  0.43768723  0.25002457  0.42246804    -0.73570
O39         O  0.43733387  0.20709372  0.49899011    -0.62190
O40         O  0.43822720  0.29461921  0.49556202    -0.70600
O41         O  0.48660160  0.29301207  0.49612721    -0.70150
O42         O  0.48570984  0.20553518  0.49844951    -0.61400
O43         O  0.48617785  0.24865678  0.42243406    -0.73910
O44         O  0.48613092  0.24980781  0.07163893    -0.72690
Cu45       Cu  0.43602861  0.25089758  0.49708161     1.04560
Cu46       Cu  0.48784129  0.24922384  0.99710167     1.04330
C47         C  0.46186752  0.25084145  0.09490369     0.93610
C48         C  0.46192348  0.24924367  0.39909611     0.92750
C49         C  0.46131308  0.19244674  0.49966480     0.84900
C50         C  0.46265111  0.30769517  0.49568320     0.91170
O51         O  0.46101778  0.27474787  0.17268754    -0.72590
O52         O  0.46114248  0.27374711  0.32182459    -0.73570
O53         O  0.00488111  0.27483030  0.24705228    -0.62190
O54         O  0.41736286  0.27350363  0.24726568    -0.70600
O55         O  0.41873741  0.22515290  0.24646854    -0.70150
O56         O  0.00622399  0.22647722  0.24637262    -0.61400
O57         O  0.46258389  0.22528476  0.32116209    -0.73910
O58         O  0.46254715  0.22627477  0.17197406    -0.72690
Cu59       Cu  0.46104759  0.27589971  0.24723173     1.04560
Cu60       Cu  0.46256774  0.22410456  0.24644217     1.04330
C61         C  0.46181263  0.25063489  0.14902958     0.93610
C62         C  0.46189023  0.24940545  0.34484921     0.92750
C63         C  0.01943362  0.25081839  0.24672113     0.84900
C64         C  0.40416578  0.24915020  0.24697084     0.91170
O65         O  0.21202550  0.47561155  0.06970103    -0.72590
O66         O  0.21351089  0.47576793  0.42056202    -0.73570
O67         O  0.25653485  0.47620123  0.49707047    -0.62190
O68         O  0.16893650  0.47531961  0.49396743    -0.70600
O69         O  0.16740240  0.02368069  0.99357816    -0.70150
O70         O  0.25492721  0.02454757  0.49766247    -0.61400
O71         O  0.21215255  0.02422848  0.42064909    -0.73910
O72         O  0.21010581  0.02408255  0.06979966    -0.72690
Cu73       Cu  0.21278054  0.47402665  0.49521230     1.04560
Cu74       Cu  0.21109582  0.02582945  0.99532153     1.04330
C75         C  0.21094161  0.99982515  0.09304242     0.93610
C76         C  0.21292650  0.00001486  0.39723761     0.92750
C77         C  0.26956666  0.00062726  0.99879940     0.84900
C78         C  0.15432886  0.99928860  0.49365506     0.91170
O79         O  0.18826045  0.50069164  0.32004743    -0.72590
O80         O  0.18705563  0.50050986  0.17086106    -0.73570
O81         O  0.18713194  0.45682535  0.24555644    -0.62190
O82         O  0.18824793  0.04425075  0.24511912    -0.70600
O83         O  0.23662678  0.04300843  0.24420794    -0.70150
O84         O  0.23551054  0.45552152  0.24473453    -0.61400
O85         O  0.23555744  0.49909238  0.17005684    -0.73910
O86         O  0.23674773  0.49933045  0.31919568    -0.72690
Cu87       Cu  0.18598113  0.50061295  0.24542216     1.04560
Cu88       Cu  0.23780568  0.49919243  0.24448683     1.04330
C89         C  0.21264988  0.50003458  0.34298365     0.93610
C90         C  0.21117291  0.49979026  0.14716301     0.92750
C91         C  0.21116422  0.44229860  0.24533015     0.84900
C92         C  0.21257188  0.05750482  0.24464643     0.91170
C93         C  0.46329365  0.33997903  0.49595513     0.03490
C94         C  0.49012382  0.35439619  0.50070196    -0.12660
C95         C  0.49076835  0.38485135  0.50320555     0.00990
C96         C  0.46473850  0.40096093  0.49945822    -0.11190
C97         C  0.43789993  0.38722932  0.49339551     0.03480
C98         C  0.43718033  0.35663680  0.49230289    -0.10610
H99         H  0.01040799  0.34207714  0.50354638     0.09070
H100        H  0.46544769  0.42457188  0.50119716     0.06600
H101        H  0.41643596  0.34593832  0.48787354     0.06450
C102        C  0.12202981  0.99876357  0.49404927     0.03490
C103        C  0.10744876  0.47201748  0.49859539    -0.12660
C104        C  0.07695724  0.47148293  0.50088920     0.00990
C105        C  0.06095957  0.99757416  0.49724379    -0.11190
C106        C  0.07488001  0.02432798  0.49174362     0.03480
C107        C  0.10547527  0.02494127  0.49082595    -0.10610
H108        H  0.11970151  0.45170388  0.50146808     0.09070
H109        H  0.03731936  0.99702972  0.49869406     0.06600
H110        H  0.11623522  0.04568330  0.48687371     0.06450
C111        C  0.46074950  0.16018704  0.50169985     0.03490
C112        C  0.48683897  0.14350949  0.49776603    -0.12660
C113        C  0.48597804  0.11293333  0.49677129     0.00990
C114        C  0.45908699  0.09915530  0.50140313    -0.11190
C115        C  0.43310204  0.11531488  0.50552651     0.03480
C116        C  0.43389762  0.14578398  0.50595884    -0.10610
H117        H  0.00764059  0.15417361  0.49379371     0.09070
H118        H  0.45825898  0.07552942  0.50081395     0.06600
H119        H  0.41358631  0.15810509  0.50821338     0.06450
C120        C  0.30184001  0.00129405  0.50259113     0.03490
C121        C  0.31867049  0.47528009  0.49980580    -0.12660
C122        C  0.34925940  0.47624965  0.50147683     0.00990
C123        C  0.36275102  0.50312789  0.50825927    -0.11190
C124        C  0.34649117  0.02908489  0.50997945     0.03480
C125        C  0.31604658  0.02821343  0.50755751    -0.10610
H126        H  0.30819392  0.45449873  0.49441729     0.09070
H127        H  0.38637102  0.50408520  0.50967554     0.06600
H128        H  0.30364582  0.04850916  0.50795360     0.06450
C129        C  0.39854944  0.08393907  0.96125313    -0.20950
C130        C  0.40540249  0.09948553  0.50438585    -0.08990
C131        C  0.38885471  0.09529372  0.54773662     0.29870
C132        C  0.36737844  0.07380533  0.54874245    -0.20950
C133        C  0.36234411  0.05667756  0.50643938    -0.09000
C134        C  0.37720456  0.06271468  0.96217999     0.29870
F135        F  0.37284246  0.04622835  0.92101291    -0.19530
H136        H  0.41126786  0.08683747  0.92770676     0.18240
H137        H  0.35623804  0.06912738  0.58327145     0.18240
F138        F  0.39519845  0.11008796  0.58996230    -0.19520
C139        C  0.03598654  0.09566499  0.02242897    -0.20950
C140        C  0.01250505  0.09460695  0.48903424    -0.08990
C141        C  0.01258676  0.07309078  0.45180132     0.29870
C142        C  0.03436623  0.05156685  0.45079407    -0.20950
C143        C  0.05656553  0.05105718  0.48666979    -0.09000
C144        C  0.05796969  0.07397889  0.02132780     0.29870
F145        F  0.07914092  0.07402039  0.05657820    -0.19530
H146        H  0.03627930  0.11206871  0.05138617     0.18240
H147        H  0.03306480  0.03428226  0.42345098     0.18240
F148        F  0.49064758  0.07198566  0.41797366    -0.19520
C149        C  0.41207129  0.42968040  0.45558121    -0.20950
C150        C  0.41128330  0.40581480  0.48815666    -0.08990
C151        C  0.38706489  0.40281487  0.01978798     0.29870
C152        C  0.36550048  0.42491922  0.02192918    -0.20950
C153        C  0.36795790  0.45008869  0.49254747    -0.09000
C154        C  0.39075762  0.45158253  0.45768681     0.29870
F155        F  0.39325189  0.47504503  0.42726166    -0.19530
H156        H  0.43020031  0.43214383  0.43015161     0.18240
H157        H  0.34797331  0.42325839  0.04872505     0.18240
F158        F  0.38542470  0.37981818  0.05133871    -0.19520
C159        C  0.03849497  0.40172511  0.47012080    -0.20950
C160        C  0.01822101  0.40086053  0.50919964    -0.08990
C161        C  0.02129077  0.41993661  0.04961056     0.29870
C162        C  0.04246686  0.44140400  0.04861930    -0.20950
C163        C  0.06094863  0.44409305  0.50747517    -0.09000
C164        C  0.05984040  0.42328806  0.46918380     0.29870
F165        F  0.07736918  0.42561129  0.42876563    -0.19530
H166        H  0.03625060  0.38732437  0.43848368     0.18240
H167        H  0.04311932  0.45725603  0.07844795     0.18240
F168        F  0.50218637  0.41926838  0.08814177    -0.19520
C169        C  0.15624626  0.17232351  0.29775418    -0.20950
C170        C  0.15924084  0.15372108  0.25664576    -0.08990
C171        C  0.13865289  0.15547337  0.21796251     0.29870
C172        C  0.11694760  0.17740337  0.21864955    -0.20950
C173        C  0.11574225  0.19761512  0.25785937    -0.09000
C174        C  0.13471778  0.19406827  0.29846549     0.29870
F175        F  0.13356472  0.21286519  0.33743128    -0.19530
H176        H  0.17176238  0.17106805  0.32807932     0.18240
H177        H  0.10249735  0.17990314  0.18704940     0.18240
F178        F  0.14110185  0.13775596  0.17772903    -0.19520
C179        C  0.15300575  0.33030214  0.29990112    -0.20950
C180        C  0.15657911  0.34830028  0.25827068    -0.08990
C181        C  0.13676890  0.34639342  0.21853101     0.29790
C182        C  0.11532436  0.32487183  0.21883582    -0.20950
C183        C  0.11360924  0.30519503  0.25870223    -0.09000
C184        C  0.13175483  0.30893182  0.30020283     0.29870
F185        F  0.13028786  0.29046026  0.33953322    -0.19530
H186        H  0.16801240  0.33156962  0.33090570     0.18240
H187        H  0.10161341  0.32213751  0.18644485     0.18240
F188        F  0.13989109  0.36340795  0.17766777    -0.19520
C189        C  0.30671057  0.32260248  0.22116911    -0.20950
C190        C  0.30777168  0.30211644  0.25996619    -0.08990
C191        C  0.28859955  0.30535738  0.30038898     0.29870
C192        C  0.26705093  0.32708916  0.29983977    -0.20950
C193        C  0.26421744  0.34597953  0.25907774    -0.09000
C194        C  0.28498623  0.34450471  0.22063380     0.29870
F195        F  0.28269778  0.36246752  0.18069266    -0.19530
H196        H  0.32130345  0.32034004  0.18968083     0.18240
H197        H  0.25140558  0.32812810  0.33001981     0.18240
F198        F  0.28959910  0.28629960  0.33899425    -0.19520
C199        C  0.29173471  0.19094629  0.29942616    -0.20950
C200        C  0.31002379  0.19453343  0.25815916    -0.08990
C201        C  0.30836088  0.17476548  0.21833161     0.29870
C202        C  0.28679045  0.15336486  0.21816022    -0.20950
C203        C  0.26682646  0.15165206  0.25763128    -0.09000
C204        C  0.27032273  0.16974382  0.29925977     0.29870
F205        F  0.25159157  0.16826821  0.33824926    -0.19530
H206        H  0.29281707  0.20591924  0.33051179     0.18240
H207        H  0.28426024  0.13967750  0.18568162     0.18240
F208        F  0.32568056  0.17788022  0.17782810    -0.19520
C209        C  0.37187337  0.24878910  0.74810434     0.03490
C210        C  0.35696664  0.22207960  0.74927445    -0.12660
C211        C  0.32650422  0.22185847  0.75386218     0.00990
C212        C  0.31097489  0.24830834  0.75643805    -0.11190
C213        C  0.32531894  0.27497356  0.75506502     0.03480
C214        C  0.35573266  0.27522030  0.75027173    -0.10610
H215        H  0.36894437  0.20154861  0.74807197     0.09070
H216        H  0.28738347  0.24813200  0.75968782     0.06600
H217        H  0.36674459  0.29595670  0.74973845     0.06450
C218        C  0.21084095  0.41003204  0.74677315     0.03490
C219        C  0.23729734  0.39391658  0.74885248    -0.12660
C220        C  0.23707327  0.36353359  0.75401597     0.00990
C221        C  0.21038879  0.34922357  0.75618968    -0.11190
C222        C  0.18391881  0.36472983  0.75357865     0.03480
C223        C  0.18412635  0.39513940  0.74844094    -0.10610
H224        H  0.25803560  0.40493695  0.74802173     0.09070
H225        H  0.21021243  0.32567781  0.75999127     0.06600
H226        H  0.16357762  0.40710010  0.74723994     0.06450
C227        C  0.21281740  0.08977861  0.74552261     0.03490
C228        C  0.23948003  0.10475170  0.74741312    -0.12660
C229        C  0.23956493  0.13518247  0.75217556     0.00990
C230        C  0.21304543  0.15064499  0.75378610    -0.11190
C231        C  0.18642189  0.13624382  0.75155877     0.03480
C232        C  0.18630260  0.10583330  0.74695921    -0.10610
H233        H  0.26006643  0.09283983  0.74683943     0.09070
H234        H  0.21313116  0.17421444  0.75722927     0.06600
H235        H  0.16559591  0.09475610  0.74609845     0.06450
C236        C  0.05172122  0.25112383  0.74760660     0.03490
C237        C  0.06666787  0.27779402  0.74938475    -0.12660
C238        C  0.09713463  0.27792032  0.75377347     0.00990
C239        C  0.11265043  0.25143830  0.75526363    -0.11190
C240        C  0.09825394  0.22481158  0.75337136     0.03480
C241        C  0.06782549  0.22465068  0.74892030    -0.10610
H242        H  0.05472262  0.29835284  0.74884062     0.09070
H243        H  0.13625151  0.25155810  0.75829434     0.06600
H244        H  0.05677965  0.20393614  0.74802496     0.06450
O245        O  0.43764483  0.25171983  0.57156207    -0.72590
O246        O  0.43767893  0.25004351  0.92246708    -0.73570
O247        O  0.43730687  0.20711424  0.99899284    -0.62190
O248        O  0.43823632  0.29463873  0.99555800    -0.70600
O249        O  0.48661041  0.29301513  0.99612256    -0.70150
O250        O  0.48568256  0.20553883  0.99845221    -0.61400
O251        O  0.48616933  0.24865731  0.92243465    -0.73910
O252        O  0.48613875  0.24980397  0.57164028    -0.72690
Cu253      Cu  0.43602015  0.25091865  0.99708138     1.04560
Cu254      Cu  0.48785008  0.24922164  0.49710222     1.04330
C255        C  0.46187464  0.25082931  0.59490393     0.93610
C256        C  0.46191540  0.24925258  0.89909599     0.92750
C257        C  0.46128099  0.19245898  0.99966826     0.84900
C258        C  0.46266481  0.30770634  0.99567620     0.91170
O259        O  0.46102308  0.27474097  0.67268272    -0.72590
O260        O  0.46113619  0.27375145  0.82182004    -0.73570
O261        O  0.00488052  0.27482958  0.74705576    -0.62190
O262        O  0.41736256  0.27350292  0.74725308    -0.70600
O263        O  0.41873685  0.22515211  0.74646910    -0.70150
O264        O  0.00622378  0.22647648  0.74638146    -0.61400
O265        O  0.46258058  0.22528909  0.82116666    -0.73910
O266        O  0.46254961  0.22626775  0.67197906    -0.72690
Cu267      Cu  0.46104712  0.27589871  0.74722669     1.04560
Cu268      Cu  0.46256734  0.22410348  0.74644733     1.04330
C269        C  0.46181807  0.25062627  0.64902971     0.93610
C270        C  0.46188379  0.24941126  0.84484919     0.92750
C271        C  0.01943322  0.25081782  0.74672813     0.84900
C272        C  0.40416535  0.24914959  0.74696401     0.91170
O273        O  0.21199736  0.47560207  0.56970236    -0.72590
O274        O  0.21354234  0.47577753  0.92056224    -0.73570
O275        O  0.25656568  0.47621264  0.99707396    -0.62190
O276        O  0.16896704  0.47532875  0.99396312    -0.70600
O277        O  0.16745059  0.02366912  0.49357960    -0.70150
O278        O  0.25487889  0.02456033  0.99766545    -0.61400
O279        O  0.21210676  0.02423981  0.92064890    -0.73910
O280        O  0.21015355  0.02407132  0.56979789    -0.72690
Cu281      Cu  0.21281119  0.47403662  0.99521171     1.04560
Cu282      Cu  0.21114392  0.02581766  0.49532078     1.04330
C283        C  0.21098582  0.99981432  0.59304169     0.93610
C284        C  0.21288444  0.00002581  0.89723840     0.92750
C285        C  0.26961441  0.00061411  0.49879509     0.84900
C286        C  0.15428102  0.99930002  0.99365238     0.91170
O287        O  0.18827612  0.50069785  0.82005940    -0.72590
O288        O  0.18704247  0.50050405  0.67087339    -0.73570
O289        O  0.18713253  0.45682563  0.74557927    -0.62190
O290        O  0.18824820  0.04425066  0.74508886    -0.70600
O291        O  0.23662730  0.04300842  0.74421668    -0.70150
O292        O  0.23551097  0.45552125  0.74473289    -0.61400
O293        O  0.23554414  0.49908657  0.67004540    -0.73910
O294        O  0.23676324  0.49933606  0.81918315    -0.72690
Cu295      Cu  0.18598213  0.50061312  0.74543535     1.04560
Cu296      Cu  0.23780652  0.49919231  0.74447384     1.04330
C297        C  0.21266963  0.50004224  0.84298329     0.93610
C298        C  0.21115572  0.49978278  0.64716353     0.92750
C299        C  0.21116458  0.44229861  0.74534371     0.84900
C300        C  0.21257222  0.05750477  0.74463264     0.91170
C301        C  0.46331710  0.33998998  0.99594176     0.03490
C302        C  0.49015116  0.35440090  0.00068316    -0.12660
C303        C  0.49080246  0.38485608  0.00318473     0.00990
C304        C  0.46477579  0.40097129  0.99944239    -0.11190
C305        C  0.43793352  0.38724597  0.99338395     0.03480
C306        C  0.43720759  0.35665379  0.99229072    -0.10610
H307        H  0.01043255  0.34207716  0.00352595     0.09070
H308        H  0.46549063  0.42458184  0.00118463     0.06600
H309        H  0.41646061  0.34595978  0.98786388     0.06450
C310        C  0.12198186  0.99877449  0.99404405     0.03490
C311        C  0.10747940  0.47202486  0.99857696    -0.12660
C312        C  0.07698797  0.47148904  0.00086723     0.00990
C313        C  0.06091167  0.99758313  0.99723557    -0.11190
C314        C  0.07483094  0.02433733  0.99173597     0.03480
C315        C  0.10542637  0.02495179  0.99081977    -0.10610
H316        H  0.11973269  0.45171136  0.00144588     0.09070
H317        H  0.03727146  0.99703764  0.99868594     0.06600
H318        H  0.11618569  0.04569421  0.98686862     0.06450
C319        C  0.46070725  0.16019961  0.00170448     0.03490
C320        C  0.48679281  0.14351627  0.99777227    -0.12660
C321        C  0.48592556  0.11294079  0.99677871     0.00990
C322        C  0.45903165  0.09916836  0.00141076    -0.11190
C323        C  0.43304966  0.11533329  0.00553252     0.03480
C324        C  0.43385167  0.14580262  0.00596280    -0.10610
H325        H  0.00759697  0.15417557  0.99379991     0.09070
H326        H  0.45819905  0.07554270  0.00082299     0.06600
H327        H  0.41354316  0.15812847  0.00821592     0.06450
C328        C  0.30179211  0.00130822  0.00259871     0.03490
C329        C  0.31870188  0.47529490  0.99982251    -0.12660
C330        C  0.34929048  0.47626623  0.00151149     0.00990
C331        C  0.36277878  0.50314393  0.00831713    -0.11190
C332        C  0.34644207  0.02910075  0.00999227     0.03480
C333        C  0.31599758  0.02822801  0.00756778    -0.10610
H334        H  0.30822762  0.45451385  0.99441825     0.09070
H335        H  0.38639851  0.50410258  0.00974764     0.06600
H336        H  0.30359601  0.04852327  0.00796366     0.06450
C337        C  0.39860752  0.08391524  0.46124605    -0.20950
C338        C  0.40534728  0.09950798  0.00439327    -0.08990
C339        C  0.38880338  0.09531264  0.04774747     0.29870
C340        C  0.36732931  0.07382183  0.04875608    -0.20950
C341        C  0.36229329  0.05669486  0.00645252    -0.09000
C342        C  0.37726028  0.06269343  0.46216996     0.29870
F343        F  0.37290020  0.04620576  0.42100376    -0.19530
H344        H  0.41132871  0.08681160  0.42770216     0.18240
H345        H  0.35619223  0.06914148  0.08328721     0.18240
F346        F  0.39514942  0.11010545  0.08997357    -0.19520
C347        C  0.03603822  0.09565864  0.52242883    -0.20950
C348        C  0.01244988  0.09461070  0.98904181    -0.08990
C349        C  0.01252890  0.07309358  0.95181079     0.29870
C350        C  0.03431068  0.05157214  0.95079691    -0.20950
C351        C  0.05651435  0.05106529  0.98666519    -0.09000
C352        C  0.05801969  0.07397055  0.52133321     0.29870
F353        F  0.07918759  0.07400985  0.55658949    -0.19530
H354        H  0.03632876  0.11206124  0.55138800     0.18240
H355        H  0.03300793  0.03428716  0.92345476     0.18240
F356        F  0.49058647  0.07198627  0.91798948    -0.19520
C357        C  0.41211302  0.42971431  0.95560644    -0.20950
C358        C  0.41131931  0.40583692  0.98815632    -0.08990
C359        C  0.38703501  0.40280373  0.51980471     0.29870
C360        C  0.36547089  0.42490881  0.52193486    -0.20950
C361        C  0.36799292  0.45010952  0.99256985    -0.09000
C362        C  0.39079952  0.45161598  0.95772397     0.29870
F363        F  0.39329972  0.47508907  0.92732412    -0.19530
H364        H  0.43024566  0.43218627  0.93018640     0.18240
H365        H  0.34794938  0.42325795  0.54874296     0.18240
F366        F  0.38540195  0.37981854  0.55138123    -0.19520
C367        C  0.03852516  0.40173263  0.97008828    -0.20950
C368        C  0.01825804  0.40086070  0.00917677    -0.08990
C369        C  0.02124818  0.41994195  0.54962708     0.29870
C370        C  0.04242675  0.44140686  0.54863806    -0.20950
C371        C  0.06098130  0.44409761  0.00744849    -0.09000
C372        C  0.05986871  0.42329755  0.96914973     0.29870
F373        F  0.07739105  0.42562757  0.92872470    -0.19530
H374        H  0.03627607  0.38733669  0.93844577     0.18240
H375        H  0.04307565  0.45726277  0.57846092     0.18240
F376        F  0.50213780  0.41928010  0.58815019    -0.19520
C377        C  0.15624711  0.17232040  0.79773718    -0.20950
C378        C  0.15924104  0.15372105  0.75662463    -0.08990
C379        C  0.13865287  0.15547653  0.71794215     0.29870
C380        C  0.11694770  0.17740662  0.71863472    -0.20950
C381        C  0.11574284  0.19761528  0.75784929    -0.09000
C382        C  0.13471886  0.19406527  0.79845394     0.29870
F383        F  0.13356639  0.21285922  0.83742391    -0.19530
H384        H  0.17176359  0.17106251  0.82806156     0.18240
H385        H  0.10249706  0.17990891  0.68703562     0.18240
F386        F  0.14110134  0.13776212  0.67770477    -0.19520
C387        C  0.15300530  0.33029967  0.79991998    -0.20950
C388        C  0.15657875  0.34830037  0.75829271    -0.08990
C389        C  0.13676835  0.34639593  0.71855281     0.29790
C390        C  0.11532370  0.32487439  0.71885390    -0.20950
C391        C  0.11360853  0.30519516  0.75871682    -0.09000
C392        C  0.13175426  0.30892938  0.80021796     0.29870
F393        F  0.13028735  0.29045534  0.83954497    -0.19530
H394        H  0.16801198  0.33156519  0.83092479     0.18240
H395        H  0.10161272  0.32214205  0.68646244     0.18240
F396        F  0.13989052  0.36341281  0.67769239    -0.19520
C397        C  0.30671009  0.32260487  0.72118006    -0.20950
C398        C  0.30777230  0.30211666  0.75997369    -0.08990
C399        C  0.28860125  0.30535535  0.80039850     0.29870
C400        C  0.26705245  0.32708702  0.79985431    -0.20950
C401        C  0.26421769  0.34597953  0.75909535    -0.09000
C402        C  0.28498562  0.34450700  0.72064980     0.29870
F403        F  0.28269609  0.36247192  0.68071157    -0.19530
H404        H  0.32130211  0.32034422  0.68969029     0.18240
H405        H  0.25140794  0.32812423  0.83003573     0.18240
F406        F  0.28960194  0.28629545  0.83900069    -0.19520
C407        C  0.29173307  0.19094489  0.79941262    -0.20950
C408        C  0.31002288  0.19453376  0.75814701    -0.08990
C409        C  0.30836086  0.17476737  0.71831708     0.29870
C410        C  0.28679060  0.15336664  0.71814203    -0.20950
C411        C  0.26682598  0.15165217  0.75761183    -0.09000
C412        C  0.27032124  0.16974233  0.79924255     0.29870
F413        F  0.25158919  0.16826517  0.83823060    -0.19530
H414        H  0.29281479  0.20591657  0.83050011     0.18240
H415        H  0.28426105  0.13968050  0.68566175     0.18240
F416        F  0.32568125  0.17788381  0.67781487    -0.19520
C417        C  0.37187285  0.74878902  0.24811391     0.03490
C418        C  0.35696641  0.72207937  0.24928793    -0.12660
C419        C  0.32650386  0.72185818  0.25387337     0.00990
C420        C  0.31097416  0.74830805  0.25644279    -0.11190
C421        C  0.32531798  0.77497334  0.25506552     0.03480
C422        C  0.35573180  0.77522012  0.25027509    -0.10610
H423        H  0.36894441  0.70154844  0.24809012     0.09070
H424        H  0.28738265  0.74813165  0.25969067     0.06600
H425        H  0.36674348  0.79595663  0.24973809     0.06450
C426        C  0.21084063  0.91003196  0.24674632     0.03490
C427        C  0.23729698  0.89391642  0.24882571    -0.12660
C428        C  0.23707273  0.86353345  0.25398909     0.00990
C429        C  0.21038826  0.84922346  0.25616154    -0.11190
C430        C  0.18391838  0.86472981  0.25355071     0.03480
C431        C  0.18412597  0.89513937  0.24841340    -0.10610
H432        H  0.25803528  0.90493677  0.24799683     0.09070
H433        H  0.21021182  0.82567774  0.25996419     0.06600
H434        H  0.16357726  0.90710016  0.24721353     0.06450
C435        C  0.21281622  0.58977860  0.24554792     0.03490
C436        C  0.23947901  0.60475151  0.24743832    -0.12660
C437        C  0.23956416  0.63518229  0.25220136     0.00990
C438        C  0.21304469  0.65064490  0.25381269    -0.11190
C439        C  0.18642103  0.63624389  0.25158510     0.03480
C440        C  0.18630158  0.60583340  0.24698536    -0.10610
H441        H  0.26006532  0.59283953  0.24686317     0.09070
H442        H  0.21313056  0.67421439  0.25725507     0.06600
H443        H  0.16559483  0.59475633  0.24612357     0.06450
C444        C  0.05172064  0.75112403  0.24760230     0.03490
C445        C  0.06666763  0.77779410  0.24937558    -0.12660
C446        C  0.09713431  0.77792030  0.25376598     0.00990
C447        C  0.11264970  0.75143819  0.25526313    -0.11190
C448        C  0.09825291  0.72481153  0.25337603     0.03480
C449        C  0.06782455  0.72465072  0.24892275    -0.10610
H450        H  0.05472267  0.79835304  0.24882617     0.09070
H451        H  0.13625073  0.75155789  0.25829499     0.06600
H452        H  0.05677843  0.70393628  0.24803167     0.06450
O453        O  0.43763546  0.75173433  0.07156504    -0.72590
O454        O  0.43768514  0.75003267  0.42246984    -0.73570
O455        O  0.43731147  0.70710308  0.49899523    -0.62190
O456        O  0.43824565  0.79462854  0.49555847    -0.70600
O457        O  0.48661971  0.79300275  0.49612456    -0.70150
O458        O  0.48568714  0.70552745  0.49845378    -0.61400
O459        O  0.48617553  0.74864556  0.42243624    -0.73910
O460        O  0.48612932  0.74981746  0.07164084    -0.72690
Cu461      Cu  0.43602671  0.75090824  0.49708338     1.04560
Cu462      Cu  0.48783970  0.74923243  0.99710360     1.04330
C463        C  0.46186578  0.75084284  0.09490581     0.93610
C464        C  0.46192133  0.74924183  0.39909816     0.92750
C465        C  0.46128557  0.69244764  0.49966842     0.84900
C466        C  0.46267487  0.80769503  0.49567655     0.91170
O467        O  0.46101800  0.77474876  0.17269048    -0.72590
O468        O  0.46113957  0.77374581  0.32182750    -0.73570
O469        O  0.00488000  0.77483025  0.24705758    -0.62190
O470        O  0.41736181  0.77350338  0.24726672    -0.70600
O471        O  0.41873639  0.72515264  0.24647200    -0.70150
O472        O  0.00622303  0.72647720  0.24637262    -0.61400
O473        O  0.46258402  0.72528350  0.32116363    -0.73910
O474        O  0.46254462  0.72627563  0.17197566    -0.72690
Cu475      Cu  0.46104642  0.77589953  0.24723487     1.04560
Cu476      Cu  0.46256669  0.72410438  0.24644372     1.04330
C477        C  0.46181123  0.75063599  0.14903181     0.93610
C478        C  0.46188850  0.74940392  0.34485139     0.92750
C479        C  0.01943261  0.75081841  0.24672392     0.84900
C480        C  0.40416477  0.74914994  0.24697319     0.91170
O481        O  0.21199346  0.97561241  0.06969312    -0.72590
O482        O  0.21354827  0.97576684  0.42055271    -0.73570
O483        O  0.25657668  0.97620075  0.49705655    -0.62190
O484        O  0.16897785  0.97531783  0.49396433    -0.70600
O485        O  0.16743982  0.52368003  0.99357886    -0.70150
O486        O  0.25488725  0.52454811  0.49767610    -0.61400
O487        O  0.21211674  0.52422959  0.42065810    -0.73910
O488        O  0.21013886  0.52408170  0.06980733    -0.72690
Cu489      Cu  0.21282193  0.97402555  0.49520325     1.04560
Cu490      Cu  0.21113303  0.52582871  0.99532938     1.04330
C491        C  0.21097156  0.49982429  0.09305021     0.93610
C492        C  0.21289303  0.50001594  0.39724679     0.92750
C493        C  0.26960321  0.50062607  0.99881580     0.84900
C494        C  0.15428815  0.49929073  0.49365436     0.91170
O495        O  0.18827842  0.00069116  0.32005304    -0.72590
O496        O  0.18704029  0.00051078  0.17086706    -0.73570
O497        O  0.18713236  0.95682569  0.24556184    -0.62190
O498        O  0.18824666  0.54425071  0.24511284    -0.70600
O499        O  0.23662569  0.54300845  0.24422998    -0.70150
O500        O  0.23551078  0.95552114  0.24471147    -0.61400
O501        O  0.23554194  0.99909287  0.17003469    -0.73910
O502        O  0.23676551  0.99932942  0.31917221    -0.72690
Cu503      Cu  0.18598221  0.00061318  0.24542910     1.04560
Cu504      Cu  0.23780657  0.99919219  0.24446290     1.04330
C505        C  0.21267265  0.00003363  0.34297461     0.93610
C506        C  0.21115283  0.99979111  0.14715505     0.92750
C507        C  0.21116435  0.94229858  0.24532155     0.84900
C508        C  0.21257072  0.55750480  0.24465376     0.91170
C509        C  0.46332900  0.83997859  0.49593982     0.03490
C510        C  0.49016315  0.85438833  0.50069192    -0.12660
C511        C  0.49081552  0.88484357  0.50319206     0.00990
C512        C  0.46479005  0.90095985  0.49943758    -0.11190
C513        C  0.43794793  0.88723563  0.49336805     0.03480
C514        C  0.43722094  0.85664349  0.49227589    -0.10610
H515        H  0.01044347  0.84206369  0.50354476     0.09070
H516        H  0.46550575  0.92457032  0.50117997     0.06600
H517        H  0.41647422  0.84595015  0.48784014     0.06450
C518        C  0.12198899  0.49876649  0.49403848     0.03490
C519        C  0.10749089  0.97201377  0.49860350    -0.12660
C520        C  0.07699967  0.97147784  0.50090651     0.00990
C521        C  0.06091845  0.49757904  0.49721373    -0.11190
C522        C  0.07484004  0.52433180  0.49171120     0.03480
C523        C  0.10543544  0.52494433  0.49080282    -0.10610
H524        H  0.11974462  0.95170019  0.50146564     0.09070
H525        H  0.03727807  0.49703535  0.49865940     0.06600
H526        H  0.11619637  0.54568579  0.48684970     0.06450
C527        C  0.46071288  0.66018802  0.50169753     0.03490
C528        C  0.48679951  0.64350696  0.49775905    -0.12660
C529        C  0.48593465  0.61293168  0.49675516     0.00990
C530        C  0.45904204  0.59915660  0.50138377    -0.11190
C531        C  0.43305878  0.61531890  0.50551122     0.03480
C532        C  0.43385834  0.64578855  0.50595183    -0.10610
H533        H  0.00760289  0.65416809  0.49378939     0.09070
H534        H  0.45821145  0.57553089  0.50078946     0.06600
H535        H  0.41354906  0.65811280  0.50820932     0.06450
C536        C  0.30179919  0.50129240  0.50260144     0.03490
C537        C  0.31871409  0.97528347  0.49978912    -0.12660
C538        C  0.34930296  0.97625558  0.50147446     0.00990
C539        C  0.36279032  0.00313358  0.50828199    -0.11190
C540        C  0.34645386  0.52908076  0.50996093     0.03480
C541        C  0.31600857  0.52821111  0.50755471    -0.10610
H542        H  0.30824000  0.95450235  0.49438518     0.09070
H543        H  0.38641001  0.00409314  0.50971359     0.06600
H544        H  0.30360915  0.54850762  0.50795208     0.06450
C545        C  0.39859162  0.58392908  0.96127249    -0.20950
C546        C  0.40535806  0.59949054  0.50436924    -0.08990
C547        C  0.38881404  0.59529232  0.54772238     0.29870
C548        C  0.36734117  0.57380035  0.54872776    -0.20950
C549        C  0.36230718  0.55667379  0.50642295    -0.09000
C550        C  0.37724410  0.56270745  0.96219987     0.29870
F551        F  0.37287796  0.54622332  0.92103154    -0.19530
H552        H  0.41130799  0.58682823  0.92772406     0.18240
H553        H  0.35620330  0.56911885  0.58325765     0.18240
F554        F  0.39515892  0.61008345  0.58995072    -0.19520
C555        C  0.03603234  0.59567064  0.02240274    -0.20950
C556        C  0.01246047  0.59460468  0.48901372    -0.08990
C557        C  0.01254051  0.57308866  0.45178078     0.29870
C558        C  0.03432277  0.55156779  0.45076628    -0.20950
C559        C  0.05652586  0.55106085  0.48663552    -0.09000
C560        C  0.05801401  0.57398295  0.02129729     0.29870
F561        F  0.07918710  0.57402271  0.05654450    -0.19530
H562        H  0.03632718  0.61207321  0.05136170     0.18240
H563        H  0.03302024  0.53428274  0.42342422     0.18240
F564        F  0.49059812  0.57198120  0.41795946    -0.19520
C565        C  0.41213432  0.92970794  0.45558857    -0.20950
C566        C  0.41133469  0.90582737  0.48813097    -0.08990
C567        C  0.38701972  0.90280987  0.01973669     0.29870
C568        C  0.36545735  0.92491663  0.02187870    -0.20950
C569        C  0.36800680  0.95009935  0.49253333    -0.09000
C570        C  0.39082010  0.95160911  0.45770018     0.29870
F571        F  0.39332592  0.97508465  0.42730735    -0.19530
H572        H  0.43027175  0.93218253  0.43017896     0.18240
H573        H  0.34792314  0.92325072  0.04866016     0.18240
F574        F  0.38536815  0.87980516  0.05126818    -0.19520
C575        C  0.03854316  0.90171952  0.47011532    -0.20950
C576        C  0.01827088  0.90084729  0.50919598    -0.08990
C577        C  0.02124991  0.91993655  0.04962413     0.29870
C578        C  0.04242843  0.94140157  0.04864224    -0.20950
C579        C  0.06099341  0.94408547  0.50748348    -0.09000
C580        C  0.05988643  0.92328488  0.46918478     0.29870
F581        F  0.07741372  0.92561515  0.42876603    -0.19530
H582        H  0.03629832  0.88732364  0.43847171     0.18240
H583        H  0.04307957  0.95725203  0.07847343     0.18240
F584        F  0.50214208  0.91926753  0.08815017    -0.19520
C585        C  0.15624550  0.67232369  0.29775543    -0.20950
C586        C  0.15924006  0.65372140  0.25664684    -0.08990
C587        C  0.13865216  0.65547384  0.21796354     0.29870
C588        C  0.11694685  0.67740380  0.21865085    -0.20950
C589        C  0.11574146  0.69761538  0.25786096    -0.09000
C590        C  0.13471704  0.69406843  0.29846698     0.29870
F591        F  0.13356403  0.71286523  0.33743293    -0.19530
H592        H  0.17176164  0.67106811  0.32808055     0.18240
H593        H  0.10249658  0.67990369  0.18705075     0.18240
F594        F  0.14110116  0.63775655  0.17772990    -0.19520
C595        C  0.15300570  0.83030272  0.29989978    -0.20950
C596        C  0.15657847  0.84830065  0.25826886    -0.08990
C597        C  0.13676763  0.84639348  0.21853012     0.29790
C598        C  0.11532306  0.82487190  0.21883633    -0.20950
C599        C  0.11360849  0.80519533  0.25870317    -0.09000
C600        C  0.13175478  0.80893236  0.30020283     0.29870
F601        F  0.13028850  0.79046099  0.33953357    -0.19530
H602        H  0.16801282  0.83157037  0.33090367     0.18240
H603        H  0.10161162  0.82213739  0.18644601     0.18240
F604        F  0.13988924  0.86340767  0.17766632    -0.19520
C605        C  0.30671027  0.82260197  0.22116806    -0.20950
C606        C  0.30777102  0.80211665  0.25996627    -0.08990
C607        C  0.28859863  0.80535840  0.30038851     0.29870
C608        C  0.26705003  0.82709016  0.29983760    -0.20950
C609        C  0.26421681  0.84597965  0.25907434    -0.09000
C610        C  0.28498594  0.84450417  0.22063101     0.29870
F611        F  0.28269786  0.86246625  0.18068886    -0.19530
H612        H  0.32130340  0.82033891  0.18968024     0.18240
H613        H  0.25140448  0.82812972  0.33001729     0.18240
F614        F  0.28959791  0.78630138  0.33899489    -0.19520
C615        C  0.29173334  0.69094665  0.29942925    -0.20950
C616        C  0.31002267  0.69453359  0.25816253    -0.08990
C617        C  0.30836002  0.67476545  0.21833521     0.29870
C618        C  0.28678966  0.65336477  0.21816377    -0.20950
C619        C  0.26682548  0.65165210  0.25763458    -0.09000
C620        C  0.27032143  0.66974411  0.29926281     0.29870
F621        F  0.25158998  0.66826870  0.33825191    -0.19530
H622        H  0.29281547  0.70591977  0.33051466     0.18240
H623        H  0.28425964  0.63967725  0.18568532     0.18240
F624        F  0.32567991  0.67788007  0.17783192    -0.19520
C625        C  0.37187301  0.74878925  0.74810683     0.03490
C626        C  0.35696627  0.72207975  0.74927585    -0.12660
C627        C  0.32650384  0.72185862  0.75386328     0.00990
C628        C  0.31097452  0.74830847  0.75643996    -0.11190
C629        C  0.32531863  0.77497367  0.75506791     0.03480
C630        C  0.35573234  0.77522042  0.75027504    -0.10610
H631        H  0.36894398  0.70154877  0.74807276     0.09070
H632        H  0.28738309  0.74813210  0.75968936     0.06600
H633        H  0.36674430  0.79595682  0.74974235     0.06450
C634        C  0.21084121  0.91003204  0.74676607     0.03490
C635        C  0.23729748  0.89391657  0.74884856    -0.12660
C636        C  0.23707323  0.86353371  0.75401379     0.00990
C637        C  0.21038868  0.84922380  0.75618671    -0.11190
C638        C  0.18391877  0.86473004  0.75357306     0.03480
C639        C  0.18412650  0.89513948  0.74843281    -0.10610
H640        H  0.25803580  0.90493685  0.74801837     0.09070
H641        H  0.21021218  0.82567813  0.75998986     0.06600
H642        H  0.16357784  0.90710023  0.74723003     0.06450
C643        C  0.21281679  0.58977865  0.74552831     0.03490
C644        C  0.23947955  0.60475168  0.74741562    -0.12660
C645        C  0.23956462  0.63518258  0.75217582     0.00990
C646        C  0.21304522  0.65064525  0.75378657    -0.11190
C647        C  0.18642160  0.63624410  0.75156225     0.03480
C648        C  0.18630210  0.60583345  0.74696564    -0.10610
H649        H  0.26006588  0.59283971  0.74684198     0.09070
H650        H  0.21313112  0.67421478  0.75722816     0.06600
H651        H  0.16559535  0.59475630  0.74610704     0.06450
C652        C  0.05172083  0.75112404  0.74760931     0.03490
C653        C  0.06666750  0.77779427  0.74938581    -0.12660
C654        C  0.09713430  0.77792068  0.75377396     0.00990
C655        C  0.11265011  0.75143870  0.75526539    -0.11190
C656        C  0.09825364  0.72481192  0.75337483     0.03480
C657        C  0.06782515  0.72465092  0.74892430    -0.10610
H658        H  0.05472224  0.79835308  0.74884062     0.09070
H659        H  0.13625121  0.75155859  0.75829554     0.06600
H660        H  0.05677932  0.70393636  0.74803014     0.06450
O661        O  0.43764360  0.75173233  0.57156426    -0.72590
O662        O  0.43767753  0.75003215  0.92246899    -0.73570
O663        O  0.43732384  0.70710474  0.99899834    -0.62190
O664        O  0.43821565  0.79463127  0.99555558    -0.70600
O665        O  0.48658998  0.79302268  0.99612135    -0.70150
O666        O  0.48569979  0.70554602  0.99845644    -0.61400
O667        O  0.48616817  0.74866419  0.92243696    -0.73910
O668        O  0.48613700  0.74979632  0.57164191    -0.72690
Cu669      Cu  0.43601828  0.75090894  0.99708329     1.04560
Cu670      Cu  0.48784782  0.74921184  0.49710393     1.04330
C671        C  0.46187332  0.75083198  0.59490592     0.93610
C672        C  0.46191425  0.74925018  0.89909814     0.92750
C673        C  0.46130301  0.69245765  0.99967365     0.84900
C674        C  0.46263989  0.80770658  0.99567258     0.91170
O675        O  0.46102083  0.77474268  0.67268603    -0.72590
O676        O  0.46113712  0.77375009  0.82182342    -0.73570
O677        O  0.00488008  0.77482976  0.74705729    -0.62190
O678        O  0.41736214  0.77350307  0.74725871    -0.70600
O679        O  0.41873641  0.72515229  0.74646827    -0.70150
O680        O  0.00622335  0.72647666  0.74638491    -0.61400
O681        O  0.46257844  0.72528768  0.82116784    -0.73910
O682        O  0.46255051  0.72626954  0.67198022    -0.72690
Cu683      Cu  0.46104661  0.77589888  0.74723028     1.04560
Cu684      Cu  0.46256684  0.72410367  0.74644844     1.04330
C685        C  0.46181714  0.75062838  0.64903188     0.93610
C686        C  0.46188296  0.74940949  0.84485143     0.92750
C687        C  0.01943280  0.75081800  0.74673074     0.84900
C688        C  0.40416494  0.74914976  0.74696647     0.91170
O689        O  0.21204026  0.97560116  0.56969350    -0.72590
O690        O  0.21350368  0.97577819  0.92055444    -0.73570
O691        O  0.25652962  0.97621351  0.99705964    -0.62190
O692        O  0.16893047  0.97532944  0.99396259    -0.70600
O693        O  0.16741057  0.52367091  0.49358246    -0.70150
O694        O  0.25491609  0.52455947  0.99767962    -0.61400
O695        O  0.21214625  0.52423917  0.92065697    -0.73910
O696        O  0.21011223  0.52407227  0.56980716    -0.72690
Cu697      Cu  0.21277490  0.97403738  0.99520389     1.04560
Cu698      Cu  0.21110414  0.52581878  0.49532978     1.04330
C699        C  0.21094612  0.49981520  0.59305082     0.93610
C700        C  0.21292156  0.50002519  0.89724632     0.92750
C701        C  0.26957348  0.50061411  0.49880916     0.84900
C702        C  0.15431805  0.49929955  0.99364881     0.91170
O703        O  0.18825609  0.00069828  0.82003426    -0.72590
O704        O  0.18706413  0.00050353  0.67084703    -0.73570
O705        O  0.18713298  0.95682559  0.74555338    -0.62190
O706        O  0.18824754  0.54425069  0.74511428    -0.70600
O707        O  0.23662642  0.54300847  0.74420771    -0.70150
O708        O  0.23551163  0.95552122  0.74474150    -0.61400
O709        O  0.23556600  0.99908594  0.67005376    -0.73910
O710        O  0.23674342  0.99933649  0.81919201    -0.72690
Cu711      Cu  0.18598278  0.00061309  0.74540806     1.04560
Cu712      Cu  0.23780740  0.99919225  0.74448397     1.04330
C713        C  0.21264403  0.00004277  0.84297524     0.93610
C714        C  0.21118331  0.99978203  0.64715447     0.92750
C715        C  0.21116509  0.94229858  0.74533538     0.84900
C716        C  0.21257145  0.55750480  0.74464031     0.91170
C717        C  0.46328459  0.83999060  0.99593491     0.03490
C718        C  0.49011628  0.85440418  0.00068509    -0.12660
C719        C  0.49076486  0.88485871  0.00318652     0.00990
C720        C  0.46473779  0.90097206  0.99943566    -0.11190
C721        C  0.43789691  0.88724517  0.99336452     0.03480
C722        C  0.43717362  0.85665201  0.99227206    -0.10610
H723        H  0.01039871  0.84208280  0.00353568     0.09070
H724        H  0.46545158  0.92458257  0.00118034     0.06600
H725        H  0.41642866  0.84595542  0.98783667     0.06450
C726        C  0.12201889  0.49877462  0.99402894     0.03490
C727        C  0.10744366  0.97202429  0.99859740    -0.12660
C728        C  0.07695256  0.97148771  0.00089905     0.00990
C729        C  0.06094820  0.49758509  0.99719759    -0.11190
C730        C  0.07486912  0.52433919  0.99170409     0.03480
C731        C  0.10546467  0.52495235  0.99079859    -0.10610
H732        H  0.11969778  0.95171098  0.00146027     0.09070
H733        H  0.03730787  0.49704029  0.99864208     0.06600
H734        H  0.11622531  0.54569440  0.98685230     0.06450
C735        C  0.46073952  0.66019786  0.00171026     0.03490
C736        C  0.48682848  0.64352042  0.99776547    -0.12660
C737        C  0.48596758  0.61294429  0.99676903     0.00990
C738        C  0.45907722  0.59916599  0.00141112    -0.11190
C739        C  0.43309269  0.61532532  0.00554581     0.03480
C740        C  0.43388822  0.64579455  0.00597918    -0.10610
H741        H  0.00762947  0.65418469  0.99378480     0.09070
H742        H  0.45824923  0.57554012  0.00082058     0.06600
H743        H  0.41357720  0.65811562  0.00824183     0.06450
C744        C  0.30182847  0.50130589  0.00261941     0.03490
C745        C  0.31866707  0.97529826  0.99979695    -0.12660
C746        C  0.34925591  0.97627101  0.00148448     0.00990
C747        C  0.36274229  0.00314976  0.00829410    -0.11190
C748        C  0.34648020  0.52909574  0.01001318     0.03480
C749        C  0.31603553  0.52822502  0.00758691    -0.10610
H750        H  0.30819360  0.95451700  0.99439067     0.09070
H751        H  0.38636182  0.00411025  0.00972676     0.06600
H752        H  0.30363520  0.54852101  0.00798000     0.06450
C753        C  0.39856283  0.58392123  0.46122799    -0.20950
C754        C  0.40539300  0.59949569  0.00441324    -0.08990
C755        C  0.38885174  0.59529978  0.04777007     0.29870
C756        C  0.36737519  0.57381164  0.04877928    -0.20950
C757        C  0.36233389  0.55668811  0.00647367    -0.09000
C758        C  0.37721991  0.56269467  0.46215233     0.29870
F759        F  0.37285999  0.54620877  0.42098405    -0.19530
H760        H  0.41128172  0.58682136  0.42768264     0.18240
H761        H  0.35623977  0.56913074  0.08331174     0.18240
F762        F  0.39520196  0.61008992  0.08999702    -0.19520
C763        C  0.03599759  0.59565999  0.52239966    -0.20950
C764        C  0.01249375  0.59461838  0.98901941    -0.08990
C765        C  0.01257025  0.57310255  0.95178605     0.29870
C766        C  0.03435014  0.55157910  0.95076867    -0.20950
C767        C  0.05655478  0.55106922  0.98663511    -0.09000
C768        C  0.05798136  0.57397472  0.52129750     0.29870
F769        F  0.07915281  0.57401671  0.55654749    -0.19530
H770        H  0.03628990  0.61206325  0.55135764     0.18240
H771        H  0.03304472  0.53429473  0.92342586     0.18240
F772        F  0.49062585  0.57199719  0.91796828    -0.19520
C773        C  0.41208576  0.92972166  0.95559193    -0.20950
C774        C  0.41128283  0.90583684  0.98812570    -0.08990
C775        C  0.38707362  0.90280162  0.51974675     0.29870
C776        C  0.36550875  0.92490568  0.52188268    -0.20950
C777        C  0.36795995  0.95011460  0.99254067    -0.09000
C778        C  0.39077475  0.95162583  0.95771078     0.29870
F779        F  0.39328483  0.97510489  0.92732698    -0.19530
H780        H  0.43022416  0.93219759  0.93018501     0.18240
H781        H  0.34797633  0.92324173  0.54866821     0.18240
F782        F  0.38542667  0.87980122  0.55128834    -0.19520
C783        C  0.03848994  0.90173528  0.97010341    -0.20950
C784        C  0.01821926  0.90086348  0.00918636    -0.08990
C785        C  0.02129839  0.91992302  0.54963130     0.29870
C786        C  0.04247405  0.94139106  0.54864784    -0.20950
C787        C  0.06094652  0.94409583  0.00747612    -0.09000
C788        C  0.05983538  0.92329813  0.96917361     0.29870
F789        F  0.07736060  0.92562934  0.92875240    -0.19530
H790        H  0.03624247  0.88734100  0.93845832     0.18240
H791        H  0.04312234  0.95724306  0.57847696     0.18240
F792        F  0.50218930  0.91925414  0.58815553    -0.19520
C793        C  0.15624775  0.67232160  0.79774026    -0.20950
C794        C  0.15924092  0.65372152  0.75662854    -0.08990
C795        C  0.13865207  0.65547633  0.71794703     0.29870
C796        C  0.11694688  0.67740639  0.71863966    -0.20950
C797        C  0.11574267  0.69761571  0.75785329    -0.09000
C798        C  0.13471946  0.69406643  0.79845708     0.29870
F799        F  0.13356769  0.71286104  0.83742618    -0.19530
H800        H  0.17176479  0.67106424  0.82806385     0.18240
H801        H  0.10249568  0.67990812  0.68704119     0.18240
F802        F  0.14109987  0.63776123  0.67771042    -0.19520
C803        C  0.15300501  0.83030114  0.79991667    -0.20950
C804        C  0.15657863  0.84830073  0.75828802    -0.08990
C805        C  0.13676834  0.84639525  0.71854812     0.29790
C806        C  0.11532362  0.82487376  0.71885079    -0.20950
C807        C  0.11360826  0.80519562  0.75871525    -0.09000
C808        C  0.13175395  0.80893086  0.80021615     0.29870
F809        F  0.13028702  0.79045780  0.83954448    -0.19530
H810        H  0.16801159  0.83156746  0.83092150     0.18240
H811        H  0.10161271  0.82214059  0.68645946     0.18240
F812        F  0.13989068  0.86341098  0.67768637    -0.19520
C813        C  0.30671085  0.82260522  0.72118266    -0.20950
C814        C  0.30777202  0.80211680  0.75997603    -0.08990
C815        C  0.28860008  0.80535540  0.80039962     0.29870
C816        C  0.26705133  0.82708711  0.79985418    -0.20950
C817        C  0.26421754  0.84597971  0.75909516    -0.09000
C818        C  0.28498645  0.84450735  0.72065113     0.29870
F819        F  0.28269794  0.86247241  0.68071292    -0.19530
H820        H  0.32130362  0.82034466  0.68969388     0.18240
H821        H  0.25140611  0.82812425  0.83003454     0.18240
F822        F  0.28959985  0.78629538  0.83900168    -0.19520
C823        C  0.29173321  0.69094434  0.79941324    -0.20950
C824        C  0.31002251  0.69453388  0.75814720    -0.08990
C825        C  0.30836000  0.67476819  0.71831632     0.29870
C826        C  0.28678977  0.65336742  0.71814100    -0.20950
C827        C  0.26682571  0.65165223  0.75761153    -0.09000
C828        C  0.27032143  0.66974174  0.79924292     0.29870
F829        F  0.25158981  0.66826396  0.83823148    -0.19530
H830        H  0.29281527  0.70591553  0.83050137     0.18240
H831        H  0.28425981  0.63968180  0.68566019     0.18240
F832        F  0.32567990  0.67788535  0.67781368    -0.19520
C833        C  0.87187380  0.24878920  0.24811133     0.03490
C834        C  0.85696744  0.22207947  0.24928457    -0.12660
C835        C  0.82650489  0.22185811  0.25387008     0.00990
C836        C  0.81097509  0.24830790  0.25644018    -0.11190
C837        C  0.82531879  0.27497327  0.25506378     0.03480
C838        C  0.85573263  0.27522023  0.25027330    -0.10610
H839        H  0.86894551  0.20154859  0.24808628     0.09070
H840        H  0.78738359  0.24813137  0.25968824     0.06600
H841        H  0.86674424  0.29595678  0.24973705     0.06450
C842        C  0.71084088  0.41003198  0.24675374     0.03490
C843        C  0.73729736  0.39391657  0.24883313    -0.12660
C844        C  0.73707329  0.36353343  0.25399399     0.00990
C845        C  0.71038889  0.34922324  0.25616477    -0.11190
C846        C  0.68391897  0.36472953  0.25355415     0.03480
C847        C  0.68412637  0.39513916  0.24841867    -0.10610
H848        H  0.75803560  0.40493706  0.24800528     0.09070
H849        H  0.71021251  0.32567743  0.25996581     0.06600
H850        H  0.66357758  0.40709981  0.24721891     0.06450
C851        C  0.71281731  0.08977862  0.24554236     0.03490
C852        C  0.73948003  0.10475161  0.24743256    -0.12660
C853        C  0.73956510  0.13518226  0.25219828     0.00990
C854        C  0.71304556  0.15064472  0.25381180    -0.11190
C855        C  0.68642193  0.13624368  0.25158384     0.03480
C856        C  0.68630260  0.10583328  0.24698214    -0.10610
H857        H  0.76006637  0.09283970  0.24685578     0.09070
H858        H  0.71313137  0.17421414  0.25725562     0.06600
H859        H  0.66559589  0.09475616  0.24611994     0.06450
C860        C  0.55172160  0.25112389  0.24759940     0.03490
C861        C  0.56666859  0.27779392  0.24937280    -0.12660
C862        C  0.59713520  0.27792005  0.25376387     0.00990
C863        C  0.61265058  0.25143794  0.25526129    -0.11190
C864        C  0.59825377  0.22481130  0.25337400     0.03480
C865        C  0.56782544  0.22465055  0.24892017    -0.10610
H866        H  0.55472367  0.29835288  0.24882336     0.09070
H867        H  0.63625159  0.25155764  0.25829371     0.06600
H868        H  0.55677928  0.20393613  0.24802898     0.06450
O869        O  0.93763745  0.25174172  0.07156284    -0.72590
O870        O  0.93768723  0.25002457  0.42246804    -0.73570
O871        O  0.93733387  0.20709372  0.49899011    -0.62190
O872        O  0.93822720  0.29461921  0.49556203    -0.70600
O873        O  0.98660160  0.29301207  0.49612722    -0.70150
O874        O  0.98570984  0.20553518  0.49844952    -0.61400
O875        O  0.98617785  0.24865678  0.42243407    -0.73910
O876        O  0.98613092  0.24980782  0.07163894    -0.72690
Cu877      Cu  0.93602861  0.25089758  0.49708161     1.04560
Cu878      Cu  0.98784128  0.24922385  0.99710167     1.04330
C879        C  0.96186752  0.25084145  0.09490370     0.93610
C880        C  0.96192348  0.24924367  0.39909611     0.92750
C881        C  0.96131308  0.19244674  0.49966480     0.84900
C882        C  0.96265110  0.30769517  0.49568320     0.91170
O883        O  0.96101778  0.27474787  0.17268755    -0.72590
O884        O  0.96114248  0.27374711  0.32182460    -0.73570
O885        O  0.50488111  0.27483030  0.24705227    -0.62190
O886        O  0.91736286  0.27350363  0.24726568    -0.70600
O887        O  0.91873741  0.22515290  0.24646855    -0.70150
O888        O  0.50622399  0.22647722  0.24637261    -0.61400
O889        O  0.96258389  0.22528476  0.32116209    -0.73910
O890        O  0.96254715  0.22627477  0.17197407    -0.72690
Cu891      Cu  0.96104759  0.27589972  0.24723174     1.04560
Cu892      Cu  0.96256774  0.22410456  0.24644217     1.04330
C893        C  0.96181263  0.25063489  0.14902959     0.93610
C894        C  0.96189023  0.24940545  0.34484922     0.92750
C895        C  0.51943362  0.25081839  0.24672112     0.84900
C896        C  0.90416578  0.24915020  0.24697085     0.91170
O897        O  0.71202550  0.47561155  0.06970103    -0.72590
O898        O  0.71351088  0.47576793  0.42056201    -0.73570
O899        O  0.75653485  0.47620124  0.49707047    -0.62190
O900        O  0.66893650  0.47531961  0.49396743    -0.70600
O901        O  0.66740240  0.02368070  0.99357819    -0.70150
O902        O  0.75492721  0.02454758  0.49766249    -0.61400
O903        O  0.71215255  0.02422849  0.42064913    -0.73910
O904        O  0.71010582  0.02408255  0.06979969    -0.72690
Cu905      Cu  0.71278054  0.47402665  0.49521230     1.04560
Cu906      Cu  0.71109582  0.02582946  0.99532156     1.04330
C907        C  0.71094161  0.99982515  0.09304246     0.93610
C908        C  0.71292650  0.00001487  0.39723764     0.92750
C909        C  0.76956666  0.00062726  0.99879940     0.84900
C910        C  0.65432886  0.99928861  0.49365508     0.91170
O911        O  0.68826045  0.50069165  0.32004743    -0.72590
O912        O  0.68705563  0.50050986  0.17086105    -0.73570
O913        O  0.68713194  0.45682536  0.24555643    -0.62190
O914        O  0.68824793  0.04425076  0.24511915    -0.70600
O915        O  0.73662678  0.04300843  0.24420798    -0.70150
O916        O  0.73551054  0.45552152  0.24473453    -0.61400
O917        O  0.73555743  0.49909238  0.17005683    -0.73910
O918        O  0.73674773  0.49933045  0.31919568    -0.72690
Cu919      Cu  0.68598113  0.50061296  0.24542216     1.04560
Cu920      Cu  0.73780568  0.49919244  0.24448682     1.04330
C921        C  0.71264987  0.50003458  0.34298364     0.93610
C922        C  0.71117290  0.49979027  0.14716301     0.92750
C923        C  0.71116422  0.44229860  0.24533015     0.84900
C924        C  0.71257188  0.05750482  0.24464646     0.91170
C925        C  0.96329365  0.33997903  0.49595513     0.03490
C926        C  0.99012382  0.35439619  0.50070195    -0.12660
C927        C  0.99076835  0.38485135  0.50320554     0.00990
C928        C  0.96473850  0.40096093  0.49945821    -0.11190
C929        C  0.93789993  0.38722932  0.49339550     0.03480
C930        C  0.93718033  0.35663680  0.49230289    -0.10610
H931        H  0.51040799  0.34207714  0.50354639     0.09070
H932        H  0.96544769  0.42457188  0.50119716     0.06600
H933        H  0.91643595  0.34593833  0.48787354     0.06450
C934        C  0.62202982  0.99876357  0.49404927     0.03490
C935        C  0.60744876  0.47201749  0.49859539    -0.12660
C936        C  0.57695724  0.47148294  0.50088921     0.00990
C937        C  0.56095957  0.99757414  0.49724371    -0.11190
C938        C  0.57488001  0.02432797  0.49174358     0.03480
C939        C  0.60547526  0.02494127  0.49082595    -0.10610
H940        H  0.61970151  0.45170388  0.50146808     0.09070
H941        H  0.53731936  0.99702969  0.49869396     0.06600
H942        H  0.61623521  0.04568331  0.48687374     0.06450
C943        C  0.96074951  0.16018704  0.50169983     0.03490
C944        C  0.98683898  0.14350949  0.49776604    -0.12660
C945        C  0.98597805  0.11293334  0.49677128     0.00990
C946        C  0.95908701  0.09915530  0.50140309    -0.11190
C947        C  0.93310205  0.11531488  0.50552644     0.03480
C948        C  0.93389762  0.14578397  0.50595879    -0.10610
H949        H  0.50764058  0.15417360  0.49379368     0.09070
H950        H  0.95825899  0.07552942  0.50081389     0.06600
H951        H  0.91358631  0.15810508  0.50821331     0.06450
C952        C  0.80184002  0.00129404  0.50259107     0.03490
C953        C  0.81867049  0.47528010  0.49980581    -0.12660
C954        C  0.84925940  0.47624966  0.50147685     0.00990
C955        C  0.86275102  0.50312789  0.50825930    -0.11190
C956        C  0.84649119  0.02908486  0.50997921     0.03480
C957        C  0.81604660  0.02821342  0.50755738    -0.10610
H958        H  0.80819392  0.45449873  0.49441729     0.09070
H959        H  0.88637102  0.50408521  0.50967558     0.06600
H960        H  0.80364584  0.04850915  0.50795351     0.06450
C961        C  0.89854947  0.08393908  0.96125299    -0.20950
C962        C  0.90540250  0.09948552  0.50438573    -0.08990
C963        C  0.88885471  0.09529369  0.54773649     0.29870
C964        C  0.86737844  0.07380529  0.54874226    -0.20950
C965        C  0.86234414  0.05667753  0.50643917    -0.09000
C966        C  0.87720460  0.06271468  0.96217980     0.29870
F967        F  0.87284252  0.04622837  0.92101270    -0.19530
H968        H  0.91126791  0.08683749  0.92770664     0.18240
H969        H  0.85623803  0.06912733  0.58327125     0.18240
F970        F  0.89519843  0.11008791  0.58996219    -0.19520
C971        C  0.53598653  0.09566498  0.02242895    -0.20950
C972        C  0.51250503  0.09460694  0.48903424    -0.08990
C973        C  0.51258674  0.07309077  0.45180132     0.29870
C974        C  0.53436621  0.05156685  0.45079405    -0.20950
C975        C  0.55656551  0.05105717  0.48666977    -0.09000
C976        C  0.55796968  0.07397888  0.02132778     0.29870
F977        F  0.57914091  0.07402038  0.05657817    -0.19530
H978        H  0.53627929  0.11206870  0.05138616     0.18240
H979        H  0.53306477  0.03428225  0.42345096     0.18240
F980        F  0.99064761  0.07198567  0.41797364    -0.19520
C981        C  0.91207130  0.42968041  0.45558122    -0.20950
C982        C  0.91128330  0.40581481  0.48815666    -0.08990
C983        C  0.88706489  0.40281487  0.01978796     0.29870
C984        C  0.86550048  0.42491922  0.02192917    -0.20950
C985        C  0.86795790  0.45008869  0.49254748    -0.09000
C986        C  0.89075763  0.45158255  0.45768684     0.29870
F987        F  0.89325190  0.47504506  0.42726170    -0.19530
H988        H  0.93020032  0.43214385  0.43015163     0.18240
H989        H  0.84797330  0.42325838  0.04872503     0.18240
F990        F  0.88542469  0.37981817  0.05133868    -0.19520
C991        C  0.53849497  0.40172511  0.47012082    -0.20950
C992        C  0.51822101  0.40086053  0.50919966    -0.08990
C993        C  0.52129076  0.41993662  0.04961057     0.29870
C994        C  0.54246685  0.44140401  0.04861931    -0.20950
C995        C  0.56094863  0.44409305  0.50747518    -0.09000
C996        C  0.55984040  0.42328806  0.46918382     0.29870
F997        F  0.57736918  0.42561129  0.42876565    -0.19530
H998        H  0.53625060  0.38732437  0.43848371     0.18240
H999        H  0.54311931  0.45725605  0.07844795     0.18240
F1000       F  0.00218638  0.41926837  0.08814177    -0.19520
C1001       C  0.65624625  0.17232352  0.29775419    -0.20950
C1002       C  0.65924084  0.15372108  0.25664578    -0.08990
C1003       C  0.63865290  0.15547337  0.21796251     0.29870
C1004       C  0.61694761  0.17740337  0.21864955    -0.20950
C1005       C  0.61574225  0.19761512  0.25785938    -0.09000
C1006       C  0.63471778  0.19406828  0.29846549     0.29870
F1007       F  0.63356472  0.21286520  0.33743128    -0.19530
H1008       H  0.67176238  0.17106805  0.32807933     0.18240
H1009       H  0.60249736  0.17990314  0.18704940     0.18240
F1010       F  0.64110185  0.13775596  0.17772904    -0.19520
C1011       C  0.65300575  0.33030214  0.29990111    -0.20950
C1012       C  0.65657911  0.34830028  0.25827068    -0.08990
C1013       C  0.63676890  0.34639342  0.21853101     0.29790
C1014       C  0.61532436  0.32487183  0.21883582    -0.20950
C1015       C  0.61360924  0.30519503  0.25870222    -0.09000
C1016       C  0.63175483  0.30893182  0.30020283     0.29870
F1017       F  0.63028786  0.29046026  0.33953321    -0.19530
H1018       H  0.66801240  0.33156962  0.33090569     0.18240
H1019       H  0.60161341  0.32213751  0.18644484     0.18240
F1020       F  0.63989109  0.36340796  0.17766777    -0.19520
C1021       C  0.80671056  0.32260248  0.22116911    -0.20950
C1022       C  0.80777168  0.30211644  0.25996619    -0.08990
C1023       C  0.78859954  0.30535739  0.30038898     0.29870
C1024       C  0.76705092  0.32708917  0.29983977    -0.20950
C1025       C  0.76421744  0.34597953  0.25907774    -0.09000
C1026       C  0.78498623  0.34450472  0.22063380     0.29870
F1027       F  0.78269778  0.36246752  0.18069266    -0.19530
H1028       H  0.82130344  0.32034004  0.18968084     0.18240
H1029       H  0.75140558  0.32812810  0.33001981     0.18240
F1030       F  0.78959910  0.28629960  0.33899425    -0.19520
C1031       C  0.79173471  0.19094630  0.29942617    -0.20950
C1032       C  0.81002379  0.19453344  0.25815917    -0.08990
C1033       C  0.80836088  0.17476548  0.21833162     0.29870
C1034       C  0.78679045  0.15336486  0.21816024    -0.20950
C1035       C  0.76682646  0.15165206  0.25763130    -0.09000
C1036       C  0.77032274  0.16974382  0.29925979     0.29870
F1037       F  0.75159157  0.16826822  0.33824927    -0.19530
H1038       H  0.79281707  0.20591925  0.33051180     0.18240
H1039       H  0.78426024  0.13967750  0.18568163     0.18240
F1040       F  0.82568056  0.17788022  0.17782811    -0.19520
C1041       C  0.87187337  0.24878910  0.74810434     0.03490
C1042       C  0.85696664  0.22207960  0.74927445    -0.12660
C1043       C  0.82650422  0.22185848  0.75386218     0.00990
C1044       C  0.81097489  0.24830835  0.75643805    -0.11190
C1045       C  0.82531894  0.27497356  0.75506502     0.03480
C1046       C  0.85573265  0.27522030  0.75027174    -0.10610
H1047       H  0.86894437  0.20154862  0.74807198     0.09070
H1048       H  0.78738347  0.24813201  0.75968782     0.06600
H1049       H  0.86674459  0.29595670  0.74973845     0.06450
C1050       C  0.71084095  0.41003204  0.74677315     0.03490
C1051       C  0.73729734  0.39391658  0.74885248    -0.12660
C1052       C  0.73707327  0.36353359  0.75401597     0.00990
C1053       C  0.71038879  0.34922358  0.75618967    -0.11190
C1054       C  0.68391881  0.36472983  0.75357865     0.03480
C1055       C  0.68412635  0.39513940  0.74844093    -0.10610
H1056       H  0.75803560  0.40493696  0.74802173     0.09070
H1057       H  0.71021243  0.32567781  0.75999126     0.06600
H1058       H  0.66357762  0.40710010  0.74723993     0.06450
C1059       C  0.71281740  0.08977862  0.74552264     0.03490
C1060       C  0.73948004  0.10475170  0.74741314    -0.12660
C1061       C  0.73956493  0.13518248  0.75217558     0.00990
C1062       C  0.71304543  0.15064499  0.75378611    -0.11190
C1063       C  0.68642189  0.13624382  0.75155879     0.03480
C1064       C  0.68630260  0.10583330  0.74695924    -0.10610
H1065       H  0.76006643  0.09283983  0.74683946     0.09070
H1066       H  0.71313116  0.17421445  0.75722928     0.06600
H1067       H  0.66559591  0.09475610  0.74609848     0.06450
C1068       C  0.55172122  0.25112383  0.74760660     0.03490
C1069       C  0.56666787  0.27779402  0.74938474    -0.12660
C1070       C  0.59713463  0.27792032  0.75377346     0.00990
C1071       C  0.61265043  0.25143830  0.75526363    -0.11190
C1072       C  0.59825394  0.22481158  0.75337135     0.03480
C1073       C  0.56782549  0.22465068  0.74892029    -0.10610
H1074       H  0.55472262  0.29835284  0.74884061     0.09070
H1075       H  0.63625151  0.25155810  0.75829434     0.06600
H1076       H  0.55677965  0.20393614  0.74802496     0.06450
O1077       O  0.93764483  0.25171983  0.57156207    -0.72590
O1078       O  0.93767893  0.25004351  0.92246709    -0.73570
O1079       O  0.93730687  0.20711424  0.99899285    -0.62190
O1080       O  0.93823632  0.29463873  0.99555800    -0.70600
O1081       O  0.98661041  0.29301513  0.99612257    -0.70150
O1082       O  0.98568256  0.20553884  0.99845222    -0.61400
O1083       O  0.98616933  0.24865732  0.92243465    -0.73910
O1084       O  0.98613875  0.24980397  0.57164029    -0.72690
Cu1085     Cu  0.93602015  0.25091865  0.99708138     1.04560
Cu1086     Cu  0.98785008  0.24922164  0.49710222     1.04330
C1087       C  0.96187464  0.25082932  0.59490393     0.93610
C1088       C  0.96191540  0.24925258  0.89909599     0.92750
C1089       C  0.96128099  0.19245898  0.99966826     0.84900
C1090       C  0.96266480  0.30770635  0.99567620     0.91170
O1091       O  0.96102308  0.27474097  0.67268273    -0.72590
O1092       O  0.96113619  0.27375145  0.82182004    -0.73570
O1093       O  0.50488052  0.27482958  0.74705575    -0.62190
O1094       O  0.91736256  0.27350292  0.74725309    -0.70600
O1095       O  0.91873685  0.22515211  0.74646911    -0.70150
O1096       O  0.50622378  0.22647648  0.74638146    -0.61400
O1097       O  0.96258058  0.22528909  0.82116667    -0.73910
O1098       O  0.96254961  0.22626775  0.67197906    -0.72690
Cu1099     Cu  0.96104712  0.27589871  0.74722670     1.04560
Cu1100     Cu  0.96256734  0.22410348  0.74644733     1.04330
C1101       C  0.96181807  0.25062627  0.64902972     0.93610
C1102       C  0.96188379  0.24941126  0.84484919     0.92750
C1103       C  0.51943322  0.25081782  0.74672812     0.84900
C1104       C  0.90416535  0.24914959  0.74696401     0.91170
O1105       O  0.71199736  0.47560208  0.56970235    -0.72590
O1106       O  0.71354234  0.47577753  0.92056224    -0.73570
O1107       O  0.75656568  0.47621264  0.99707396    -0.62190
O1108       O  0.66896704  0.47532875  0.99396312    -0.70600
O1109       O  0.66745059  0.02366913  0.49357963    -0.70150
O1110       O  0.75487889  0.02456033  0.99766547    -0.61400
O1111       O  0.71210676  0.02423982  0.92064893    -0.73910
O1112       O  0.71015356  0.02407133  0.56979792    -0.72690
Cu1113     Cu  0.71281119  0.47403662  0.99521170     1.04560
Cu1114     Cu  0.71114393  0.02581766  0.49532082     1.04330
C1115       C  0.71098582  0.99981432  0.59304173     0.93610
C1116       C  0.71288444  0.00002582  0.89723844     0.92750
C1117       C  0.76961441  0.00061411  0.49879510     0.84900
C1118       C  0.65428103  0.99930003  0.99365240     0.91170
O1119       O  0.68827612  0.50069785  0.82005940    -0.72590
O1120       O  0.68704247  0.50050405  0.67087339    -0.73570
O1121       O  0.68713252  0.45682563  0.74557926    -0.62190
O1122       O  0.68824821  0.04425066  0.74508890    -0.70600
O1123       O  0.73662730  0.04300842  0.74421671    -0.70150
O1124       O  0.73551097  0.45552125  0.74473289    -0.61400
O1125       O  0.73554414  0.49908657  0.67004539    -0.73910
O1126       O  0.73676324  0.49933607  0.81918315    -0.72690
Cu1127     Cu  0.68598213  0.50061312  0.74543534     1.04560
Cu1128     Cu  0.73780651  0.49919231  0.74447384     1.04330
C1129       C  0.71266963  0.50004224  0.84298328     0.93610
C1130       C  0.71115572  0.49978278  0.64716353     0.92750
C1131       C  0.71116458  0.44229861  0.74534371     0.84900
C1132       C  0.71257222  0.05750477  0.74463267     0.91170
C1133       C  0.96331709  0.33998998  0.99594176     0.03490
C1134       C  0.99015116  0.35440090  0.00068315    -0.12660
C1135       C  0.99080246  0.38485608  0.00318472     0.00990
C1136       C  0.96477580  0.40097129  0.99944238    -0.11190
C1137       C  0.93793352  0.38724598  0.99338394     0.03480
C1138       C  0.93720759  0.35665380  0.99229072    -0.10610
H1139       H  0.51043255  0.34207717  0.00352596     0.09070
H1140       H  0.96549063  0.42458184  0.00118463     0.06600
H1141       H  0.91646061  0.34595979  0.98786388     0.06450
C1142       C  0.62198187  0.99877450  0.99404405     0.03490
C1143       C  0.60747940  0.47202487  0.99857697    -0.12660
C1144       C  0.57698797  0.47148905  0.00086724     0.00990
C1145       C  0.56091167  0.99758312  0.99723548    -0.11190
C1146       C  0.57483093  0.02433732  0.99173593     0.03480
C1147       C  0.60542636  0.02495180  0.99081977    -0.10610
H1148       H  0.61973269  0.45171136  0.00144589     0.09070
H1149       H  0.53727146  0.99703761  0.99868583     0.06600
H1150       H  0.61618568  0.04569422  0.98686865     0.06450
C1151       C  0.96070725  0.16019961  0.00170447     0.03490
C1152       C  0.98679282  0.14351627  0.99777227    -0.12660
C1153       C  0.98592558  0.11294080  0.99677870     0.00990
C1154       C  0.95903167  0.09916836  0.00141072    -0.11190
C1155       C  0.93304967  0.11533329  0.00553246     0.03480
C1156       C  0.93385168  0.14580262  0.00596275    -0.10610
H1157       H  0.50759696  0.15417556  0.99379988     0.09070
H1158       H  0.95819907  0.07554270  0.00082294     0.06600
H1159       H  0.91354316  0.15812847  0.00821585     0.06450
C1160       C  0.80179212  0.00130821  0.00259865     0.03490
C1161       C  0.81870188  0.47529491  0.99982252    -0.12660
C1162       C  0.84929048  0.47626624  0.00151151     0.00990
C1163       C  0.86277878  0.50314394  0.00831717    -0.11190
C1164       C  0.84644209  0.02910072  0.00999203     0.03480
C1165       C  0.81599760  0.02822800  0.00756765    -0.10610
H1166       H  0.80822762  0.45451385  0.99441825     0.09070
H1167       H  0.88639851  0.50410259  0.00974769     0.06600
H1168       H  0.80359604  0.04852326  0.00796357     0.06450
C1169       C  0.89860755  0.08391524  0.46124591    -0.20950
C1170       C  0.90534729  0.09950797  0.00439315    -0.08990
C1171       C  0.88880338  0.09531260  0.04774733     0.29870
C1172       C  0.86732932  0.07382179  0.04875589    -0.20950
C1173       C  0.86229332  0.05669483  0.00645231    -0.09000
C1174       C  0.87726032  0.06269343  0.46216977     0.29870
F1175       F  0.87290025  0.04620577  0.42100355    -0.19530
H1176       H  0.91132875  0.08681162  0.42770204     0.18240
H1177       H  0.85619223  0.06914143  0.08328700     0.18240
F1178       F  0.89514941  0.11010539  0.08997346    -0.19520
C1179       C  0.53603821  0.09565863  0.52242882    -0.20950
C1180       C  0.51244987  0.09461069  0.98904181    -0.08990
C1181       C  0.51252888  0.07309357  0.95181079     0.29870
C1182       C  0.53431066  0.05157214  0.95079689    -0.20950
C1183       C  0.55651433  0.05106529  0.98666516    -0.09000
C1184       C  0.55801968  0.07397054  0.52133318     0.29870
F1185       F  0.57918759  0.07400984  0.55658946    -0.19530
H1186       H  0.53632875  0.11206123  0.55138799     0.18240
H1187       H  0.53300790  0.03428715  0.92345475     0.18240
F1188       F  0.99058650  0.07198628  0.91798947    -0.19520
C1189       C  0.91211303  0.42971433  0.95560645    -0.20950
C1190       C  0.91131932  0.40583693  0.98815632    -0.08990
C1191       C  0.88703501  0.40280373  0.51980470     0.29870
C1192       C  0.86547089  0.42490881  0.52193486    -0.20950
C1193       C  0.86799292  0.45010953  0.99256987    -0.09000
C1194       C  0.89079953  0.45161600  0.95772400     0.29870
F1195       F  0.89329974  0.47508910  0.92732416    -0.19530
H1196       H  0.93024567  0.43218629  0.93018643     0.18240
H1197       H  0.84794937  0.42325794  0.54874294     0.18240
F1198       F  0.88540194  0.37981853  0.55138120    -0.19520
C1199       C  0.53852516  0.40173263  0.97008830    -0.20950
C1200       C  0.51825803  0.40086070  0.00917679    -0.08990
C1201       C  0.52124817  0.41994196  0.54962709     0.29870
C1202       C  0.54242674  0.44140687  0.54863807    -0.20950
C1203       C  0.56098129  0.44409761  0.00744850    -0.09000
C1204       C  0.55986871  0.42329755  0.96914975     0.29870
F1205       F  0.57739106  0.42562757  0.92872473    -0.19530
H1206       H  0.53627608  0.38733668  0.93844579     0.18240
H1207       H  0.54307563  0.45726278  0.57846092     0.18240
F1208       F  0.00213781  0.41928009  0.58815019    -0.19520
C1209       C  0.65624711  0.17232040  0.79773719    -0.20950
C1210       C  0.65924104  0.15372105  0.75662464    -0.08990
C1211       C  0.63865287  0.15547654  0.71794215     0.29870
C1212       C  0.61694771  0.17740663  0.71863472    -0.20950
C1213       C  0.61574284  0.19761528  0.75784929    -0.09000
C1214       C  0.63471885  0.19406527  0.79845394     0.29870
F1215       F  0.63356639  0.21285923  0.83742391    -0.19530
H1216       H  0.67176359  0.17106251  0.82806157     0.18240
H1217       H  0.60249707  0.17990891  0.68703562     0.18240
F1218       F  0.64110134  0.13776212  0.67770478    -0.19520
C1219       C  0.65300530  0.33029967  0.79991998    -0.20950
C1220       C  0.65657875  0.34830037  0.75829271    -0.08990
C1221       C  0.63676835  0.34639594  0.71855280     0.29790
C1222       C  0.61532370  0.32487439  0.71885390    -0.20950
C1223       C  0.61360853  0.30519516  0.75871681    -0.09000
C1224       C  0.63175426  0.30892938  0.80021796     0.29870
F1225       F  0.63028735  0.29045534  0.83954496    -0.19530
H1226       H  0.66801198  0.33156520  0.83092479     0.18240
H1227       H  0.60161272  0.32214206  0.68646243     0.18240
F1228       F  0.63989052  0.36341281  0.67769239    -0.19520
C1229       C  0.80671009  0.32260488  0.72118006    -0.20950
C1230       C  0.80777230  0.30211666  0.75997369    -0.08990
C1231       C  0.78860125  0.30535535  0.80039850     0.29870
C1232       C  0.76705245  0.32708702  0.79985431    -0.20950
C1233       C  0.76421769  0.34597953  0.75909535    -0.09000
C1234       C  0.78498562  0.34450700  0.72064980     0.29870
F1235       F  0.78269609  0.36247192  0.68071157    -0.19530
H1236       H  0.82130211  0.32034422  0.68969029     0.18240
H1237       H  0.75140794  0.32812424  0.83003573     0.18240
F1238       F  0.78960194  0.28629546  0.83900070    -0.19520
C1239       C  0.79173307  0.19094490  0.79941263    -0.20950
C1240       C  0.81002287  0.19453377  0.75814702    -0.08990
C1241       C  0.80836086  0.17476737  0.71831709     0.29870
C1242       C  0.78679060  0.15336664  0.71814204    -0.20950
C1243       C  0.76682598  0.15165218  0.75761185    -0.09000
C1244       C  0.77032124  0.16974233  0.79924256     0.29870
F1245       F  0.75158919  0.16826517  0.83823061    -0.19530
H1246       H  0.79281479  0.20591657  0.83050012     0.18240
H1247       H  0.78426105  0.13968050  0.68566177     0.18240
F1248       F  0.82568124  0.17788381  0.67781488    -0.19520
C1249       C  0.87187285  0.74878902  0.24811389     0.03490
C1250       C  0.85696642  0.72207937  0.24928792    -0.12660
C1251       C  0.82650386  0.72185818  0.25387336     0.00990
C1252       C  0.81097416  0.74830805  0.25644277    -0.11190
C1253       C  0.82531799  0.77497334  0.25506550     0.03480
C1254       C  0.85573181  0.77522012  0.25027507    -0.10610
H1255       H  0.86894441  0.70154844  0.24809010     0.09070
H1256       H  0.78738266  0.74813165  0.25969065     0.06600
H1257       H  0.86674349  0.79595663  0.24973808     0.06450
C1258       C  0.71084063  0.91003196  0.24674635     0.03490
C1259       C  0.73729698  0.89391642  0.24882573    -0.12660
C1260       C  0.73707273  0.86353345  0.25398910     0.00990
C1261       C  0.71038826  0.84922346  0.25616155    -0.11190
C1262       C  0.68391838  0.86472981  0.25355073     0.03480
C1263       C  0.68412597  0.89513937  0.24841343    -0.10610
H1264       H  0.75803529  0.90493677  0.24799685     0.09070
H1265       H  0.71021183  0.82567774  0.25996420     0.06600
H1266       H  0.66357726  0.90710016  0.24721356     0.06450
C1267       C  0.71281622  0.58977860  0.24554792     0.03490
C1268       C  0.73947901  0.60475152  0.24743831    -0.12660
C1269       C  0.73956416  0.63518230  0.25220136     0.00990
C1270       C  0.71304469  0.65064490  0.25381269    -0.11190
C1271       C  0.68642103  0.63624389  0.25158510     0.03480
C1272       C  0.68630158  0.60583340  0.24698536    -0.10610
H1273       H  0.76006532  0.59283953  0.24686316     0.09070
H1274       H  0.71313056  0.67421439  0.25725507     0.06600
H1275       H  0.66559483  0.59475634  0.24612356     0.06450
C1276       C  0.55172063  0.75112403  0.24760231     0.03490
C1277       C  0.56666763  0.77779410  0.24937559    -0.12660
C1278       C  0.59713431  0.77792030  0.25376600     0.00990
C1279       C  0.61264970  0.75143819  0.25526314    -0.11190
C1280       C  0.59825291  0.72481153  0.25337605     0.03480
C1281       C  0.56782454  0.72465072  0.24892277    -0.10610
H1282       H  0.55472267  0.79835304  0.24882619     0.09070
H1283       H  0.63625073  0.75155790  0.25829500     0.06600
H1284       H  0.55677842  0.70393628  0.24803168     0.06450
O1285       O  0.93763547  0.75173431  0.07156503    -0.72590
O1286       O  0.93768515  0.75003267  0.42246983    -0.73570
O1287       O  0.93731148  0.70710307  0.49899520    -0.62190
O1288       O  0.93824566  0.79462853  0.49555848    -0.70600
O1289       O  0.98661972  0.79300275  0.49612457    -0.70150
O1290       O  0.98568715  0.70552745  0.49845375    -0.61400
O1291       O  0.98617554  0.74864557  0.42243623    -0.73910
O1292       O  0.98612933  0.74981745  0.07164083    -0.72690
Cu1293     Cu  0.93602672  0.75090823  0.49708336     1.04560
Cu1294     Cu  0.98783971  0.74923242  0.99710359     1.04330
C1295       C  0.96186579  0.75084282  0.09490579     0.93610
C1296       C  0.96192134  0.74924184  0.39909814     0.92750
C1297       C  0.96128558  0.69244763  0.49966838     0.84900
C1298       C  0.96267487  0.80769502  0.49567658     0.91170
O1299       O  0.96101800  0.77474875  0.17269046    -0.72590
O1300       O  0.96113957  0.77374581  0.32182748    -0.73570
O1301       O  0.50488000  0.77483025  0.24705760    -0.62190
O1302       O  0.91736182  0.77350338  0.24726670    -0.70600
O1303       O  0.91873639  0.72515263  0.24647199    -0.70150
O1304       O  0.50622303  0.72647720  0.24637264    -0.61400
O1305       O  0.96258402  0.72528350  0.32116362    -0.73910
O1306       O  0.96254463  0.72627561  0.17197565    -0.72690
Cu1307     Cu  0.96104642  0.77589953  0.24723485     1.04560
Cu1308     Cu  0.96256669  0.72410437  0.24644371     1.04330
C1309       C  0.96181124  0.75063597  0.14903179     0.93610
C1310       C  0.96188851  0.74940393  0.34485137     0.92750
C1311       C  0.51943261  0.75081842  0.24672394     0.84900
C1312       C  0.90416478  0.74914994  0.24697318     0.91170
O1313       O  0.71199346  0.97561241  0.06969315    -0.72590
O1314       O  0.71354827  0.97576684  0.42055275    -0.73570
O1315       O  0.75657667  0.97620075  0.49705657    -0.62190
O1316       O  0.66897785  0.97531784  0.49396436    -0.70600
O1317       O  0.66743981  0.52368003  0.99357885    -0.70150
O1318       O  0.75488725  0.52454812  0.49767610    -0.61400
O1319       O  0.71211674  0.52422960  0.42065810    -0.73910
O1320       O  0.71013886  0.52408171  0.06980733    -0.72690
Cu1321     Cu  0.71282192  0.97402556  0.49520328     1.04560
Cu1322     Cu  0.71113303  0.52582871  0.99532938     1.04330
C1323       C  0.71097156  0.49982429  0.09305021     0.93610
C1324       C  0.71289303  0.50001595  0.39724679     0.92750
C1325       C  0.76960320  0.50062608  0.99881580     0.84900
C1326       C  0.65428814  0.49929073  0.49365436     0.91170
O1327       O  0.68827842  0.00069116  0.32005307    -0.72590
O1328       O  0.68704030  0.00051078  0.17086710    -0.73570
O1329       O  0.68713236  0.95682569  0.24556188    -0.62190
O1330       O  0.68824666  0.54425071  0.24511283    -0.70600
O1331       O  0.73662569  0.54300845  0.24422997    -0.70150
O1332       O  0.73551079  0.95552115  0.24471151    -0.61400
O1333       O  0.73554194  0.99909287  0.17003473    -0.73910
O1334       O  0.73676551  0.99932942  0.31917224    -0.72690
Cu1335     Cu  0.68598221  0.00061318  0.24542914     1.04560
Cu1336     Cu  0.73780657  0.99919219  0.24446293     1.04330
C1337       C  0.71267265  0.00003364  0.34297465     0.93610
C1338       C  0.71115283  0.99979112  0.14715509     0.92750
C1339       C  0.71116435  0.94229858  0.24532158     0.84900
C1340       C  0.71257071  0.55750480  0.24465376     0.91170
C1341       C  0.96332900  0.83997859  0.49593988     0.03490
C1342       C  0.99016314  0.85438834  0.50069201    -0.12660
C1343       C  0.99081549  0.88484358  0.50319214     0.00990
C1344       C  0.96479001  0.90095984  0.49943763    -0.11190
C1345       C  0.93794790  0.88723561  0.49336809     0.03480
C1346       C  0.93722093  0.85664347  0.49227595    -0.10610
H1347       H  0.51044348  0.84206368  0.50354467     0.09070
H1348       H  0.96550570  0.92457031  0.50118000     0.06600
H1349       H  0.91647422  0.84595013  0.48784019     0.06450
C1350       C  0.62198898  0.49876650  0.49403848     0.03490
C1351       C  0.60749090  0.97201378  0.49860345    -0.12660
C1352       C  0.57699968  0.97147783  0.50090642     0.00990
C1353       C  0.56091845  0.49757904  0.49721374    -0.11190
C1354       C  0.57484003  0.52433181  0.49171121     0.03480
C1355       C  0.60543544  0.52494434  0.49080282    -0.10610
H1356       H  0.61974463  0.95170020  0.50146560     0.09070
H1357       H  0.53727806  0.49703536  0.49865941     0.06600
H1358       H  0.61619637  0.54568580  0.48684970     0.06450
C1359       C  0.96071289  0.66018801  0.50169750     0.03490
C1360       C  0.98679952  0.64350695  0.49775902    -0.12660
C1361       C  0.98593465  0.61293168  0.49675514     0.00990
C1362       C  0.95904204  0.59915660  0.50138376    -0.11190
C1363       C  0.93305879  0.61531890  0.50551121     0.03480
C1364       C  0.93385835  0.64578855  0.50595180    -0.10610
H1365       H  0.50760288  0.65416810  0.49378943     0.09070
H1366       H  0.95821146  0.57553089  0.50078946     0.06600
H1367       H  0.91354907  0.65811280  0.50820930     0.06450
C1368       C  0.80179919  0.50129240  0.50260145     0.03490
C1369       C  0.81871408  0.97528345  0.49978905    -0.12660
C1370       C  0.84930295  0.97625555  0.50147428     0.00990
C1371       C  0.86279033  0.00313355  0.50828169    -0.11190
C1372       C  0.84645385  0.52908076  0.50996096     0.03480
C1373       C  0.81600856  0.52821111  0.50755472    -0.10610
H1374       H  0.80823998  0.95450233  0.49438518     0.09070
H1375       H  0.88641002  0.00409310  0.50971321     0.06600
H1376       H  0.80360915  0.54850762  0.50795208     0.06450
C1377       C  0.89859161  0.58392908  0.96127249    -0.20950
C1378       C  0.90535806  0.59949054  0.50436924    -0.08990
C1379       C  0.88881404  0.59529232  0.54772239     0.29870
C1380       C  0.86734117  0.57380035  0.54872777    -0.20950
C1381       C  0.86230718  0.55667380  0.50642297    -0.09000
C1382       C  0.87724409  0.56270745  0.96219989     0.29870
F1383       F  0.87287795  0.54622332  0.92103156    -0.19530
H1384       H  0.91130798  0.58682823  0.92772406     0.18240
H1385       H  0.85620331  0.56911886  0.58325767     0.18240
F1386       F  0.89515893  0.61008346  0.58995072    -0.19520
C1387       C  0.53603234  0.59567065  0.02240275    -0.20950
C1388       C  0.51246047  0.59460469  0.48901374    -0.08990
C1389       C  0.51254051  0.57308867  0.45178080     0.29870
C1390       C  0.53432277  0.55156780  0.45076629    -0.20950
C1391       C  0.55652585  0.55106085  0.48663553    -0.09000
C1392       C  0.55801401  0.57398295  0.02129730     0.29870
F1393       F  0.57918709  0.57402271  0.05654451    -0.19530
H1394       H  0.53632718  0.61207322  0.05136172     0.18240
H1395       H  0.53302024  0.53428275  0.42342422     0.18240
F1396       F  0.99059812  0.57198119  0.41795945    -0.19520
C1397       C  0.91213425  0.92970783  0.45558843    -0.20950
C1398       C  0.91133466  0.90582732  0.48813098    -0.08990
C1399       C  0.88701973  0.90280989  0.01973681     0.29870
C1400       C  0.86545736  0.92491665  0.02187876    -0.20950
C1401       C  0.86800676  0.95009930  0.49253321    -0.09000
C1402       C  0.89082002  0.95160899  0.45769996     0.29870
F1403       F  0.89332579  0.97508447  0.42730698    -0.19530
H1404       H  0.93027165  0.93218236  0.43017875     0.18240
H1405       H  0.84792319  0.92325080  0.04866031     0.18240
F1406       F  0.88536821  0.87980525  0.05126847    -0.19520
C1407       C  0.53854316  0.90171953  0.47011517    -0.20950
C1408       C  0.51827092  0.90084727  0.50919588    -0.08990
C1409       C  0.52124997  0.91993649  0.04962406     0.29870
C1410       C  0.54242849  0.94140152  0.04864216    -0.20950
C1411       C  0.56099344  0.94408546  0.50748337    -0.09000
C1412       C  0.55988642  0.92328489  0.46918463     0.29870
F1413       F  0.57741369  0.92561519  0.42876585    -0.19530
H1414       H  0.53629830  0.88732368  0.43847153     0.18240
H1415       H  0.54307965  0.95725196  0.07847338     0.18240
F1416       F  0.00214199  0.91926762  0.08815020    -0.19520
C1417       C  0.65624550  0.67232369  0.29775543    -0.20950
C1418       C  0.65924006  0.65372140  0.25664684    -0.08990
C1419       C  0.63865216  0.65547384  0.21796355     0.29870
C1420       C  0.61694685  0.67740381  0.21865086    -0.20950
C1421       C  0.61574146  0.69761539  0.25786097    -0.09000
C1422       C  0.63471704  0.69406843  0.29846698     0.29870
F1423       F  0.63356404  0.71286523  0.33743294    -0.19530
H1424       H  0.67176164  0.67106811  0.32808054     0.18240
H1425       H  0.60249658  0.67990370  0.18705076     0.18240
F1426       F  0.64110115  0.63775655  0.17772991    -0.19520
C1427       C  0.65300570  0.83030272  0.29989979    -0.20950
C1428       C  0.65657847  0.84830065  0.25826888    -0.08990
C1429       C  0.63676764  0.84639348  0.21853013     0.29790
C1430       C  0.61532306  0.82487190  0.21883635    -0.20950
C1431       C  0.61360849  0.80519533  0.25870319    -0.09000
C1432       C  0.63175478  0.80893236  0.30020285     0.29870
F1433       F  0.63028850  0.79046099  0.33953358    -0.19530
H1434       H  0.66801282  0.83157037  0.33090369     0.18240
H1435       H  0.60161162  0.82213739  0.18644602     0.18240
F1436       F  0.63988924  0.86340767  0.17766634    -0.19520
C1437       C  0.80671027  0.82260197  0.22116806    -0.20950
C1438       C  0.80777102  0.80211665  0.25996627    -0.08990
C1439       C  0.78859864  0.80535840  0.30038851     0.29870
C1440       C  0.76705003  0.82709016  0.29983760    -0.20950
C1441       C  0.76421681  0.84597965  0.25907434    -0.09000
C1442       C  0.78498594  0.84450417  0.22063102     0.29870
F1443       F  0.78269786  0.86246625  0.18068887    -0.19530
H1444       H  0.82130340  0.82033892  0.18968023     0.18240
H1445       H  0.75140449  0.82812971  0.33001729     0.18240
F1446       F  0.78959792  0.78630138  0.33899489    -0.19520
C1447       C  0.79173334  0.69094665  0.29942923    -0.20950
C1448       C  0.81002267  0.69453359  0.25816252    -0.08990
C1449       C  0.80836002  0.67476545  0.21833519     0.29870
C1450       C  0.78678966  0.65336477  0.21816376    -0.20950
C1451       C  0.76682548  0.65165210  0.25763457    -0.09000
C1452       C  0.77032143  0.66974411  0.29926280     0.29870
F1453       F  0.75158998  0.66826870  0.33825190    -0.19530
H1454       H  0.79281548  0.70591977  0.33051465     0.18240
H1455       H  0.78425964  0.63967725  0.18568530     0.18240
F1456       F  0.82567991  0.67788007  0.17783190    -0.19520
C1457       C  0.87187301  0.74878925  0.74810682     0.03490
C1458       C  0.85696627  0.72207975  0.74927583    -0.12660
C1459       C  0.82650385  0.72185862  0.75386326     0.00990
C1460       C  0.81097453  0.74830847  0.75643994    -0.11190
C1461       C  0.82531863  0.77497367  0.75506790     0.03480
C1462       C  0.85573234  0.77522042  0.75027502    -0.10610
H1463       H  0.86894398  0.70154877  0.74807275     0.09070
H1464       H  0.78738309  0.74813210  0.75968934     0.06600
H1465       H  0.86674430  0.79595682  0.74974234     0.06450
C1466       C  0.71084121  0.91003204  0.74676610     0.03490
C1467       C  0.73729749  0.89391657  0.74884858    -0.12660
C1468       C  0.73707323  0.86353371  0.75401380     0.00990
C1469       C  0.71038868  0.84922380  0.75618673    -0.11190
C1470       C  0.68391877  0.86473004  0.75357308     0.03480
C1471       C  0.68412650  0.89513948  0.74843283    -0.10610
H1472       H  0.75803580  0.90493685  0.74801840     0.09070
H1473       H  0.71021218  0.82567813  0.75998987     0.06600
H1474       H  0.66357784  0.90710023  0.74723006     0.06450
C1475       C  0.71281679  0.58977865  0.74552831     0.03490
C1476       C  0.73947954  0.60475169  0.74741561    -0.12660
C1477       C  0.73956462  0.63518258  0.75217581     0.00990
C1478       C  0.71304522  0.65064525  0.75378656    -0.11190
C1479       C  0.68642160  0.63624411  0.75156225     0.03480
C1480       C  0.68630209  0.60583345  0.74696564    -0.10610
H1481       H  0.76006588  0.59283971  0.74684197     0.09070
H1482       H  0.71313112  0.67421479  0.75722815     0.06600
H1483       H  0.66559535  0.59475630  0.74610704     0.06450
C1484       C  0.55172083  0.75112405  0.74760933     0.03490
C1485       C  0.56666750  0.77779428  0.74938583    -0.12660
C1486       C  0.59713430  0.77792068  0.75377397     0.00990
C1487       C  0.61265011  0.75143870  0.75526540    -0.11190
C1488       C  0.59825364  0.72481192  0.75337484     0.03480
C1489       C  0.56782515  0.72465092  0.74892431    -0.10610
H1490       H  0.55472224  0.79835308  0.74884064     0.09070
H1491       H  0.63625121  0.75155860  0.75829555     0.06600
H1492       H  0.55677931  0.70393636  0.74803016     0.06450
O1493       O  0.93764360  0.75173231  0.57156425    -0.72590
O1494       O  0.93767753  0.75003215  0.92246897    -0.73570
O1495       O  0.93732385  0.70710474  0.99899831    -0.62190
O1496       O  0.93821566  0.79463126  0.99555559    -0.70600
O1497       O  0.98658999  0.79302268  0.99612136    -0.70150
O1498       O  0.98569980  0.70554601  0.99845640    -0.61400
O1499       O  0.98616817  0.74866420  0.92243695    -0.73910
O1500       O  0.98613701  0.74979631  0.57164190    -0.72690
Cu1501     Cu  0.93601828  0.75090893  0.99708328     1.04560
Cu1502     Cu  0.98784782  0.74921184  0.49710392     1.04330
C1503       C  0.96187333  0.75083197  0.59490591     0.93610
C1504       C  0.96191426  0.74925019  0.89909812     0.92750
C1505       C  0.96130302  0.69245764  0.99967362     0.84900
C1506       C  0.96263990  0.80770657  0.99567261     0.91170
O1507       O  0.96102084  0.77474267  0.67268601    -0.72590
O1508       O  0.96113712  0.77375009  0.82182340    -0.73570
O1509       O  0.50488007  0.77482976  0.74705732    -0.62190
O1510       O  0.91736214  0.77350307  0.74725869    -0.70600
O1511       O  0.91873641  0.72515229  0.74646826    -0.70150
O1512       O  0.50622334  0.72647666  0.74638492    -0.61400
O1513       O  0.96257844  0.72528769  0.82116783    -0.73910
O1514       O  0.96255052  0.72626953  0.67198021    -0.72690
Cu1515     Cu  0.96104662  0.77589887  0.74723026     1.04560
Cu1516     Cu  0.96256685  0.72410367  0.74644843     1.04330
C1517       C  0.96181715  0.75062837  0.64903187     0.93610
C1518       C  0.96188296  0.74940950  0.84485142     0.92750
C1519       C  0.51943280  0.75081801  0.74673075     0.84900
C1520       C  0.90416494  0.74914975  0.74696646     0.91170
O1521       O  0.71204026  0.97560117  0.56969354    -0.72590
O1522       O  0.71350367  0.97577819  0.92055448    -0.73570
O1523       O  0.75652961  0.97621351  0.99705966    -0.62190
O1524       O  0.66893047  0.97532945  0.99396262    -0.70600
O1525       O  0.66741057  0.52367091  0.49358246    -0.70150
O1526       O  0.75491609  0.52455948  0.99767961    -0.61400
O1527       O  0.71214625  0.52423917  0.92065697    -0.73910
O1528       O  0.71011223  0.52407227  0.56980716    -0.72690
Cu1529     Cu  0.71277490  0.97403739  0.99520392     1.04560
Cu1530     Cu  0.71110413  0.52581878  0.49532977     1.04330
C1531       C  0.71094612  0.49981521  0.59305081     0.93610
C1532       C  0.71292156  0.50002519  0.89724632     0.92750
C1533       C  0.76957348  0.50061411  0.49880915     0.84900
C1534       C  0.65431805  0.49929955  0.99364881     0.91170
O1535       O  0.68825609  0.00069829  0.82003430    -0.72590
O1536       O  0.68706413  0.00050353  0.67084707    -0.73570
O1537       O  0.68713299  0.95682559  0.74555341    -0.62190
O1538       O  0.68824754  0.54425069  0.74511428    -0.70600
O1539       O  0.73662642  0.54300847  0.74420771    -0.70150
O1540       O  0.73551163  0.95552123  0.74474154    -0.61400
O1541       O  0.73556600  0.99908595  0.67005380    -0.73910
O1542       O  0.73674342  0.99933649  0.81919205    -0.72690
Cu1543     Cu  0.68598279  0.00061309  0.74540809     1.04560
Cu1544     Cu  0.73780740  0.99919225  0.74448400     1.04330
C1545       C  0.71264403  0.00004278  0.84297527     0.93610
C1546       C  0.71118331  0.99978203  0.64715450     0.92750
C1547       C  0.71116509  0.94229858  0.74533542     0.84900
C1548       C  0.71257145  0.55750480  0.74464031     0.91170
C1549       C  0.96328459  0.83999060  0.99593497     0.03490
C1550       C  0.99011627  0.85440419  0.00068517    -0.12660
C1551       C  0.99076484  0.88485872  0.00318660     0.00990
C1552       C  0.96473775  0.90097206  0.99943571    -0.11190
C1553       C  0.93789689  0.88724515  0.99336457     0.03480
C1554       C  0.93717361  0.85665199  0.99227212    -0.10610
H1555       H  0.51039871  0.84208278  0.00353559     0.09070
H1556       H  0.96545152  0.92458256  0.00118037     0.06600
H1557       H  0.91642865  0.84595539  0.98783672     0.06450
C1558       C  0.62201889  0.49877463  0.99402894     0.03490
C1559       C  0.60744367  0.97202429  0.99859735    -0.12660
C1560       C  0.57695257  0.97148771  0.00089896     0.00990
C1561       C  0.56094820  0.49758510  0.99719760    -0.11190
C1562       C  0.57486912  0.52433920  0.99170410     0.03480
C1563       C  0.60546467  0.52495235  0.99079860    -0.10610
H1564       H  0.61969779  0.95171099  0.00146022     0.09070
H1565       H  0.53730787  0.49704030  0.99864209     0.06600
H1566       H  0.61622531  0.54569440  0.98685231     0.06450
C1567       C  0.96073953  0.66019785  0.00171022     0.03490
C1568       C  0.98682848  0.64352041  0.99776544    -0.12660
C1569       C  0.98596758  0.61294428  0.99676901     0.00990
C1570       C  0.95907722  0.59916599  0.00141111    -0.11190
C1571       C  0.93309269  0.61532532  0.00554580     0.03480
C1572       C  0.93388822  0.64579455  0.00597916    -0.10610
H1573       H  0.50762946  0.65418470  0.99378483     0.09070
H1574       H  0.95824923  0.57554012  0.00082058     0.06600
H1575       H  0.91357720  0.65811562  0.00824181     0.06450
C1576       C  0.80182847  0.50130590  0.00261942     0.03490
C1577       C  0.81866706  0.97529824  0.99979688    -0.12660
C1578       C  0.84925590  0.97627098  0.00148430     0.00990
C1579       C  0.86274230  0.00314973  0.00829380    -0.11190
C1580       C  0.84648020  0.52909575  0.01001321     0.03480
C1581       C  0.81603553  0.52822502  0.00758693    -0.10610
H1582       H  0.80819357  0.95451698  0.99439068     0.09070
H1583       H  0.88636183  0.00411021  0.00972638     0.06600
H1584       H  0.80363519  0.54852102  0.00798001     0.06450
C1585       C  0.89856283  0.58392123  0.46122800    -0.20950
C1586       C  0.90539301  0.59949569  0.00441324    -0.08990
C1587       C  0.88885175  0.59529979  0.04777008     0.29870
C1588       C  0.86737520  0.57381165  0.04877930    -0.20950
C1589       C  0.86233389  0.55668812  0.00647369    -0.09000
C1590       C  0.87721991  0.56269467  0.46215235     0.29870
F1591       F  0.87285998  0.54620877  0.42098407    -0.19530
H1592       H  0.91128172  0.58682135  0.42768264     0.18240
H1593       H  0.85623977  0.56913075  0.08331176     0.18240
F1594       F  0.89520197  0.61008993  0.08999703    -0.19520
C1595       C  0.53599759  0.59566000  0.52239968    -0.20950
C1596       C  0.51249375  0.59461839  0.98901943    -0.08990
C1597       C  0.51257025  0.57310256  0.95178606     0.29870
C1598       C  0.53435013  0.55157911  0.95076868    -0.20950
C1599       C  0.55655478  0.55106923  0.98663512    -0.09000
C1600       C  0.55798136  0.57397472  0.52129751     0.29870
F1601       F  0.57915281  0.57401671  0.55654750    -0.19530
H1602       H  0.53628989  0.61206326  0.55135765     0.18240
H1603       H  0.53304472  0.53429474  0.92342586     0.18240
F1604       F  0.99062585  0.57199718  0.91796827    -0.19520
C1605       C  0.91208569  0.92972154  0.95559178    -0.20950
C1606       C  0.91128280  0.90583679  0.98812571    -0.08990
C1607       C  0.88707363  0.90280164  0.51974688     0.29870
C1608       C  0.86550876  0.92490570  0.52188274    -0.20950
C1609       C  0.86795992  0.95011455  0.99254055    -0.09000
C1610       C  0.89077467  0.95162571  0.95771056     0.29870
F1611       F  0.89328470  0.97510470  0.92732661    -0.19530
H1612       H  0.93022406  0.93219742  0.93018480     0.18240
H1613       H  0.84797637  0.92324181  0.54866835     0.18240
F1614       F  0.88542674  0.87980131  0.55128863    -0.19520
C1615       C  0.53848994  0.90173529  0.97010326    -0.20950
C1616       C  0.51821929  0.90086345  0.00918626    -0.08990
C1617       C  0.52129845  0.91992297  0.54963124     0.29870
C1618       C  0.54247411  0.94139101  0.54864777    -0.20950
C1619       C  0.56094655  0.94409581  0.00747601    -0.09000
C1620       C  0.55983538  0.92329814  0.96917346     0.29870
F1621       F  0.57736057  0.92562938  0.92875222    -0.19530
H1622       H  0.53624245  0.88734103  0.93845814     0.18240
H1623       H  0.54312242  0.95724299  0.57847692     0.18240
F1624       F  0.00218921  0.91925423  0.58815556    -0.19520
C1625       C  0.65624775  0.67232160  0.79774026    -0.20950
C1626       C  0.65924092  0.65372152  0.75662854    -0.08990
C1627       C  0.63865207  0.65547633  0.71794704     0.29870
C1628       C  0.61694688  0.67740639  0.71863967    -0.20950
C1629       C  0.61574266  0.69761571  0.75785330    -0.09000
C1630       C  0.63471946  0.69406644  0.79845709     0.29870
F1631       F  0.63356769  0.71286104  0.83742619    -0.19530
H1632       H  0.67176480  0.67106425  0.82806385     0.18240
H1633       H  0.60249567  0.67990812  0.68704120     0.18240
F1634       F  0.64109986  0.63776123  0.67771042    -0.19520
C1635       C  0.65300501  0.83030114  0.79991668    -0.20950
C1636       C  0.65657863  0.84830073  0.75828804    -0.08990
C1637       C  0.63676835  0.84639525  0.71854813     0.29790
C1638       C  0.61532362  0.82487376  0.71885080    -0.20950
C1639       C  0.61360826  0.80519562  0.75871527    -0.09000
C1640       C  0.63175395  0.80893086  0.80021617     0.29870
F1641       F  0.63028702  0.79045780  0.83954449    -0.19530
H1642       H  0.66801159  0.83156746  0.83092151     0.18240
H1643       H  0.60161271  0.82214059  0.68645947     0.18240
F1644       F  0.63989069  0.86341098  0.67768638    -0.19520
C1645       C  0.80671085  0.82260522  0.72118266    -0.20950
C1646       C  0.80777203  0.80211680  0.75997603    -0.08990
C1647       C  0.78860008  0.80535539  0.80039961     0.29870
C1648       C  0.76705133  0.82708711  0.79985418    -0.20950
C1649       C  0.76421754  0.84597971  0.75909516    -0.09000
C1650       C  0.78498645  0.84450736  0.72065113     0.29870
F1651       F  0.78269794  0.86247241  0.68071293    -0.19530
H1652       H  0.82130362  0.82034467  0.68969388     0.18240
H1653       H  0.75140612  0.82812425  0.83003455     0.18240
F1654       F  0.78959985  0.78629537  0.83900167    -0.19520
C1655       C  0.79173321  0.69094434  0.79941322    -0.20950
C1656       C  0.81002251  0.69453388  0.75814719    -0.08990
C1657       C  0.80836000  0.67476818  0.71831631     0.29870
C1658       C  0.78678977  0.65336742  0.71814099    -0.20950
C1659       C  0.76682572  0.65165223  0.75761152    -0.09000
C1660       C  0.77032144  0.66974174  0.79924291     0.29870
F1661       F  0.75158982  0.66826396  0.83823147    -0.19530
H1662       H  0.79281527  0.70591553  0.83050136     0.18240
H1663       H  0.78425981  0.63968180  0.68566017     0.18240
F1664       F  0.82567990  0.67788535  0.67781366    -0.19520
loop_ 
_geom_bond_atom_site_label_1 
_geom_bond_atom_site_label_2 
_geom_bond_distance 
_geom_bond_site_symmetry_2 
_ccdc_geom_bond_type 
C1            C2   1.412       .  A
C1            C6   1.411       .  A
C1           C64   1.481       .  S
C2            C3   1.402       .  A
C2            H7   1.083       .  S
C3            C4   1.398       .  A
C3          C200   1.478       .  S
C4            C5   1.398       .  A
C4            H8   1.085       .  S
C5            C6   1.400       .  A
C5          C190   1.477       .  S
C6            H9   1.084       .  S
C10          C11   1.411       .  A
C10          C15   1.412       .  A
C10          C91   1.481       .  S
C11          C12   1.400       .  A
C11          H16   1.084       .  S
C12          C13   1.398       .  A
C12         C193   1.477       .  S
C13          C14   1.398       .  A
C13          H17   1.085       .  S
C14          C15   1.402       .  A
C14         C180   1.478       .  S
C15          H18   1.083       .  S
C19          C20   1.412       .  A
C19          C24   1.411       .  A
C19          C92   1.480       .  S
C20          C21   1.401       .  A
C20          H25   1.083       .  S
C21          C22   1.398       .  A
C21         C203   1.478       .  S
C22          C23   1.398       .  A
C22          H26   1.085       .  S
C23          C24   1.400       .  A
C23         C170   1.477       .  S
C24          H27   1.084       .  S
C28          C29   1.412       .  A
C28          C33   1.411       .  A
C28          C63   1.480       .  S
C29          C30   1.402       .  A
C29          H34   1.083       .  S
C30          C31   1.398       .  A
C30         C183   1.477       .  S
C31          C32   1.398       .  A
C31          H35   1.085       .  S
C32          C33   1.400       .  A
C32         C173   1.477       .  S
C33          H36   1.084       .  S
O37          C47   1.276       .  A
O37        Cu253   2.006   1_554  S
O38          C48   1.277       .  A
O38         Cu45   2.010       .  S
O39          C49   1.279       .  A
O39         Cu45   2.009       .  S
O40          C50   1.278       .  A
O40         Cu45   2.010       .  S
O41          C50   1.279       .  A
O41        Cu254   2.008       .  S
O42          C49   1.278       .  A
O42        Cu254   2.008       .  S
O43          C48   1.277       .  A
O43        Cu254   2.011       .  S
O44          C47   1.276       .  A
O44         Cu46   2.007   1_554  S
Cu45        O245   2.006       .  S
Cu45       Cu254   2.375       .  S
Cu46        O249   2.008       .  S
Cu46        O250   2.008       .  S
Cu46        O251   2.011       .  S
Cu46       Cu253   2.375       .  S
C47          C61   1.457       .  S
C48          C62   1.460       .  S
C49         C111   1.481       .  S
C50          C93   1.481       .  S
O51          C61   1.276       .  A
O51         Cu59   2.007       .  S
O52          C62   1.277       .  A
O52         Cu59   2.010       .  S
O53          C63   1.278       .  A
O53        Cu891   2.009   1_455  S
O54          C64   1.279       .  A
O54         Cu59   2.007       .  S
O55          C64   1.278       .  A
O55         Cu60   2.009       .  S
O56          C63   1.278       .  A
O56        Cu892   2.006   1_455  S
O57          C62   1.277       .  A
O57         Cu60   2.011       .  S
O58          C61   1.276       .  A
O58         Cu60   2.006       .  S
Cu59        O885   2.009       .  S
Cu59        Cu60   2.375       .  S
Cu60        O888   2.006       .  S
O65         C491   1.276       .  A
O65        Cu281   2.006   1_554  S
O66         C492   1.277       .  A
O66         Cu73   2.011       .  S
O67         C701   1.278       .  A
O67         Cu73   2.010       .  S
O68         C494   1.279       .  A
O68         Cu73   2.010       .  S
O69         C286   1.278   1_545  A
O69         Cu74   2.007       .  S
O70         C285   1.279       .  A
O70        Cu282   2.008       .  S
O71          C76   1.277       .  A
O71        Cu282   2.011       .  S
O72          C75   1.276   1_545  A
O72         Cu74   2.006   1_554  S
Cu73        O273   2.006       .  S
Cu73       Cu698   2.375       .  S
Cu74        O278   2.008       .  S
Cu74        O279   2.011       .  S
Cu74       Cu697   2.375   1_545  S
C75         C506   1.456       .  S
C75         O481   1.276       .  A
C76         C505   1.460       .  S
C76         O482   1.277   1_545  A
C77         C328   1.481   1_556  S
C77         O691   1.278   1_545  A
C77         O278   1.279       .  A
C78         C102   1.481       .  S
C78         O484   1.279       .  A
C78         O277   1.278   1_565  A
O79          C89   1.277       .  A
O79         Cu87   2.011       .  S
O80          C90   1.276       .  A
O80         Cu87   2.007       .  S
O81          C91   1.278       .  A
O81         Cu87   2.008       .  S
O82          C92   1.278       .  A
O82        Cu503   2.006       .  S
O83          C92   1.278       .  A
O83        Cu504   2.009   1_545  S
O84          C91   1.279       .  A
O84         Cu88   2.007       .  S
O85          C90   1.276       .  A
O85         Cu88   2.006       .  S
O86          C89   1.277       .  A
O86         Cu88   2.011       .  S
Cu87        O498   2.006       .  S
Cu87        Cu88   2.375       .  S
Cu88        O499   2.009       .  S
C89         C492   1.460       .  S
C90         C491   1.456       .  S
C93          C94   1.411       .  A
C93          C98   1.413       .  A
C94          C95   1.399       .  A
C94         H931   1.083       .  S
C95          C96   1.397       .  A
C95         C992   1.476       .  S
C96          C97   1.400       .  A
C96         H100   1.085       .  S
C97          C98   1.404       .  A
C97         C150   1.484       .  S
C98         H101   1.083       .  S
H99         C926   1.083   1_455  S
C102        C107   1.413   1_565  A
C102        C519   1.411       .  A
C103        C104   1.400       .  A
C103        C518   1.411       .  A
C103        H108   1.083       .  S
C104        C521   1.398       .  A
C104        C163   1.475       .  S
C105        C106   1.400   1_565  A
C105        C520   1.398       .  A
C105        H109   1.085       .  S
C106        C107   1.403       .  A
C106        C143   1.481       .  S
C107        H110   1.084       .  S
C111        C112   1.413       .  A
C111        C116   1.411       .  A
C112        C113   1.404       .  A
C112        H949   1.084       .  S
C113        C114   1.400       .  A
C113        C972   1.482       .  S
C114        C115   1.397       .  A
C114        H118   1.085       .  S
C115        C116   1.398       .  A
C115        C130   1.473       .  S
C116        H119   1.083       .  S
H117        C944   1.084   1_455  S
C120        C125   1.411       .  A
C120        C537   1.413   1_545  A
C120        C285   1.481       .  S
C121        C122   1.404       .  A
C121        C536   1.413       .  A
C121        H126   1.084       .  S
C122        C123   1.400       .  A
C122        C153   1.483       .  S
C123        C540   1.396       .  A
C123        H127   1.085       .  S
C124        C125   1.398       .  A
C124        C539   1.396       .  A
C124        C133   1.472       .  S
C125        H128   1.083       .  S
C129        C134   1.391       .  A
C129        C338   1.401   1_556  A
C129        H136   1.084       .  S
C130        C131   1.406       .  A
C130        C337   1.401       .  A
C131        C132   1.404       .  A
C131        F138   1.357       .  S
C132        C133   1.404       .  A
C132        H137   1.083       .  S
C133        C342   1.403       .  A
C134        C341   1.403   1_556  A
C134        F135   1.358       .  S
C139        C144   1.405       .  A
C139        C348   1.405   1_554  A
C139        H146   1.083       .  S
C140        C141   1.406       .  A
C140        C347   1.405       .  A
C140        C945   1.482   1_455  S
C141        C142   1.393       .  A
C141        F980   1.358   1_455  S
C142        C143   1.403       .  A
C142        H147   1.084       .  S
C143        C352   1.408       .  A
C144        C351   1.408   1_554  A
C144        F145   1.357       .  S
F148        C973   1.358       .  S
C149        C150   1.403       .  A
C149        C154   1.391       .  A
C149        H156   1.084       .  S
C150        C359   1.409       .  A
C151        C152   1.406       .  A
C151        C358   1.409   1_554  A
C151        F158   1.357       .  S
C152        C361   1.406   1_554  A
C152        H157   1.083       .  S
C153        C154   1.407       .  A
C153        C360   1.406       .  A
C154        F155   1.358       .  S
C159        C160   1.404       .  A
C159        C164   1.402       .  A
C159        H166   1.083       .  S
C160        C369   1.404       .  A
C160        C927   1.476   1_455  S
C161        C162   1.394       .  A
C161        C368   1.404       .  A
C161       F1000   1.358       .  S
C162        C371   1.402       .  A
C162        H167   1.084       .  S
C163        C164   1.406       .  A
C163        C370   1.402       .  A
C164        F165   1.357       .  S
F168        C993   1.358       .  S
C169        C170   1.402       .  A
C169        C174   1.392       .  A
C169        H176   1.083       .  S
C170        C171   1.406       .  A
C171        C172   1.403       .  A
C171        F178   1.357       .  S
C172        C173   1.405       .  A
C172        H177   1.083       .  S
C173        C174   1.404       .  A
C174        F175   1.358       .  S
C179        C180   1.403       .  A
C179        C184   1.393       .  A
C179        H186   1.083       .  S
C180        C181   1.407       .  A
C181        C182   1.404       .  A
C181        F188   1.357       .  S
C182        C183   1.405       .  A
C182        H187   1.083       .  S
C183        C184   1.405       .  A
C184        F185   1.358       .  S
C189        C190   1.405       .  A
C189        C194   1.403       .  A
C189        H196   1.083       .  S
C190        C191   1.405       .  A
C191        C192   1.392       .  A
C191        F198   1.358       .  S
C192        C193   1.402       .  A
C192        H197   1.084       .  S
C193        C194   1.407       .  A
C194        F195   1.357       .  S
C199        C200   1.403       .  A
C199        C204   1.392       .  A
C199        H206   1.084       .  S
C200        C201   1.407       .  A
C201        C202   1.404       .  A
C201        F208   1.357       .  S
C202        C203   1.405       .  A
C202        H207   1.083       .  S
C203        C204   1.405       .  A
C204        F205   1.358       .  S
C209        C210   1.412       .  A
C209        C214   1.411       .  A
C209        C272   1.481       .  S
C210        C211   1.402       .  A
C210        H215   1.083       .  S
C211        C212   1.398       .  A
C211        C408   1.478       .  S
C212        C213   1.398       .  A
C212        H216   1.085       .  S
C213        C214   1.400       .  A
C213        C398   1.477       .  S
C214        H217   1.084       .  S
C218        C219   1.411       .  A
C218        C223   1.412       .  A
C218        C299   1.481       .  S
C219        C220   1.400       .  A
C219        H224   1.084       .  S
C220        C221   1.398       .  A
C220        C401   1.477       .  S
C221        C222   1.398       .  A
C221        H225   1.085       .  S
C222        C223   1.402       .  A
C222        C388   1.478       .  S
C223        H226   1.083       .  S
C227        C228   1.412       .  A
C227        C232   1.411       .  A
C227        C300   1.480       .  S
C228        C229   1.401       .  A
C228        H233   1.083       .  S
C229        C230   1.398       .  A
C229        C411   1.478       .  S
C230        C231   1.398       .  A
C230        H234   1.085       .  S
C231        C232   1.400       .  A
C231        C378   1.477       .  S
C232        H235   1.084       .  S
C236        C237   1.412       .  A
C236        C241   1.411       .  A
C236        C271   1.480       .  S
C237        C238   1.402       .  A
C237        H242   1.083       .  S
C238        C239   1.398       .  A
C238        C391   1.477       .  S
C239        C240   1.398       .  A
C239        H243   1.085       .  S
C240        C241   1.400       .  A
C240        C381   1.477       .  S
C241        H244   1.084       .  S
O245        C255   1.276       .  A
O246        C256   1.277       .  A
O246       Cu253   2.010       .  S
O247        C257   1.279       .  A
O247       Cu253   2.009       .  S
O248        C258   1.278       .  A
O248       Cu253   2.010       .  S
O249        C258   1.279       .  A
O250        C257   1.278       .  A
O251        C256   1.277       .  A
O252        C255   1.276       .  A
O252       Cu254   2.007       .  S
C255        C269   1.457       .  S
C256        C270   1.460       .  S
C257        C319   1.481   1_556  S
C258        C301   1.481       .  S
O259        C269   1.276       .  A
O259       Cu267   2.007       .  S
O260        C270   1.277       .  A
O260       Cu267   2.010       .  S
O261        C271   1.278       .  A
O261      Cu1099   2.009   1_455  S
O262        C272   1.279       .  A
O262       Cu267   2.007       .  S
O263        C272   1.278       .  A
O263       Cu268   2.009       .  S
O264        C271   1.278       .  A
O264      Cu1100   2.006   1_455  S
O265        C270   1.277       .  A
O265       Cu268   2.011       .  S
O266        C269   1.276       .  A
O266       Cu268   2.006       .  S
Cu267      O1093   2.009       .  S
Cu267      Cu268   2.375       .  S
Cu268      O1096   2.006       .  S
O273        C699   1.276       .  A
O274        C700   1.277       .  A
O274       Cu281   2.011       .  S
O275        C493   1.278       .  A
O275       Cu281   2.010       .  S
O276        C702   1.279       .  A
O276       Cu281   2.010       .  S
O277       Cu282   2.007       .  S
O279        C284   1.277       .  A
O280        C283   1.276   1_545  A
O280       Cu282   2.006       .  S
Cu281      Cu490   2.375       .  S
Cu282      Cu489   2.375   1_545  S
C283        C714   1.456       .  S
C283        O689   1.276       .  A
C284        C713   1.460       .  S
C284        O690   1.277   1_545  A
C285        O483   1.278   1_545  A
C286        C310   1.481       .  S
C286        O692   1.279       .  A
O287        C297   1.277       .  A
O287       Cu295   2.011       .  S
O288        C298   1.276       .  A
O288       Cu295   2.007       .  S
O289        C299   1.278       .  A
O289       Cu295   2.008       .  S
O290        C300   1.278       .  A
O290       Cu711   2.006       .  S
O291        C300   1.278       .  A
O291       Cu712   2.009   1_545  S
O292        C299   1.279       .  A
O292       Cu296   2.007       .  S
O293        C298   1.276       .  A
O293       Cu296   2.005       .  S
O294        C297   1.277       .  A
O294       Cu296   2.011       .  S
Cu295       O706   2.006       .  S
Cu295      Cu296   2.375       .  S
Cu296       O707   2.009       .  S
C297        C700   1.460       .  S
C298        C699   1.456       .  S
C301        C302   1.411   1_556  A
C301        C306   1.413       .  A
C302        C303   1.399       .  A
C302       H1139   1.083       .  S
C303        C304   1.397   1_554  A
C303       C1200   1.476       .  S
C304        C305   1.400       .  A
C304        H308   1.085   1_556  S
C305        C306   1.404       .  A
C305        C358   1.484       .  S
C306        H309   1.083       .  S
H307       C1134   1.083   1_455  S
C310        C727   1.411       .  A
C310        C315   1.413   1_565  A
C311        C726   1.411       .  A
C311        C312   1.400   1_556  A
C311        H316   1.083   1_556  S
C312        C729   1.398   1_554  A
C312        C371   1.475       .  S
C313        C728   1.398   1_556  A
C313        C314   1.400   1_565  A
C313        H317   1.085       .  S
C314        C315   1.403       .  A
C314        C351   1.481       .  S
C315        H318   1.084       .  S
C319        C320   1.413   1_554  A
C319        C324   1.411       .  A
C320        C321   1.404       .  A
C320       H1157   1.084       .  S
C321        C322   1.400   1_556  A
C321       C1180   1.482       .  S
C322        C323   1.397       .  A
C322        H326   1.085       .  S
C323        C324   1.398       .  A
C323        C338   1.473       .  S
C324        H327   1.083       .  S
H325       C1152   1.084   1_455  S
C328        C745   1.413   1_544  A
C328        C333   1.411       .  A
C329        C744   1.413   1_556  A
C329        C330   1.404   1_556  A
C329        H334   1.084       .  S
C330        C331   1.400       .  A
C330        C361   1.483   1_554  S
C331        C748   1.396       .  A
C331        H335   1.085       .  S
C332        C747   1.396       .  A
C332        C333   1.398       .  A
C332        C341   1.472       .  S
C333        H336   1.083       .  S
C337        C342   1.391       .  A
C337        H344   1.084       .  S
C338        C339   1.406       .  A
C339        C340   1.404       .  A
C339        F346   1.357       .  S
C340        C341   1.404       .  A
C340        H345   1.083       .  S
C342        F343   1.358       .  S
C347        C352   1.405       .  A
C347        H354   1.083       .  S
C348        C349   1.406       .  A
C348       C1153   1.482   1_455  S
C349        C350   1.393       .  A
C349       F1188   1.358   1_455  S
C350        C351   1.403       .  A
C350        H355   1.084       .  S
C352        F353   1.357       .  S
F356       C1181   1.358       .  S
C357        C358   1.403       .  A
C357        C362   1.391       .  A
C357        H364   1.084       .  S
C359        C360   1.406       .  A
C359        F366   1.357       .  S
C360        H365   1.083       .  S
C361        C362   1.407       .  A
C362        F363   1.358       .  S
C367        C368   1.404   1_556  A
C367        C372   1.402       .  A
C367        H374   1.083       .  S
C368       C1135   1.476   1_455  S
C369        C370   1.394       .  A
C369       F1208   1.358       .  S
C370        H375   1.084       .  S
C371        C372   1.406   1_554  A
C372        F373   1.357       .  S
F376       C1201   1.358       .  S
C377        C378   1.402       .  A
C377        C382   1.392       .  A
C377        H384   1.083       .  S
C378        C379   1.406       .  A
C379        C380   1.403       .  A
C379        F386   1.357       .  S
C380        C381   1.405       .  A
C380        H385   1.083       .  S
C381        C382   1.404       .  A
C382        F383   1.358       .  S
C387        C388   1.403       .  A
C387        C392   1.393       .  A
C387        H394   1.083       .  S
C388        C389   1.407       .  A
C389        C390   1.404       .  A
C389        F396   1.357       .  S
C390        C391   1.405       .  A
C390        H395   1.083       .  S
C391        C392   1.405       .  A
C392        F393   1.358       .  S
C397        C398   1.405       .  A
C397        C402   1.403       .  A
C397        H404   1.083       .  S
C398        C399   1.405       .  A
C399        C400   1.392       .  A
C399        F406   1.358       .  S
C400        C401   1.402       .  A
C400        H405   1.084       .  S
C401        C402   1.407       .  A
C402        F403   1.357       .  S
C407        C408   1.403       .  A
C407        C412   1.392       .  A
C407        H414   1.084       .  S
C408        C409   1.407       .  A
C409        C410   1.404       .  A
C409        F416   1.357       .  S
C410        C411   1.405       .  A
C410        H415   1.083       .  S
C411        C412   1.405       .  A
C412        F413   1.358       .  S
C417        C418   1.412       .  A
C417        C422   1.411       .  A
C417        C480   1.481       .  S
C418        C419   1.402       .  A
C418        H423   1.083       .  S
C419        C420   1.398       .  A
C419        C616   1.478       .  S
C420        C421   1.398       .  A
C420        H424   1.085       .  S
C421        C422   1.400       .  A
C421        C606   1.477       .  S
C422        H425   1.084       .  S
C426        C427   1.411       .  A
C426        C431   1.412       .  A
C426        C507   1.481       .  S
C427        C428   1.400       .  A
C427        H432   1.084       .  S
C428        C429   1.398       .  A
C428        C609   1.477       .  S
C429        C430   1.398       .  A
C429        H433   1.085       .  S
C430        C431   1.402       .  A
C430        C596   1.478       .  S
C431        H434   1.083       .  S
C435        C436   1.412       .  A
C435        C440   1.411       .  A
C435        C508   1.480       .  S
C436        C437   1.401       .  A
C436        H441   1.083       .  S
C437        C438   1.398       .  A
C437        C619   1.478       .  S
C438        C439   1.398       .  A
C438        H442   1.085       .  S
C439        C440   1.400       .  A
C439        C586   1.477       .  S
C440        H443   1.084       .  S
C444        C445   1.412       .  A
C444        C449   1.411       .  A
C444        C479   1.480       .  S
C445        C446   1.402       .  A
C445        H450   1.083       .  S
C446        C447   1.398       .  A
C446        C599   1.477       .  S
C447        C448   1.398       .  A
C447        H451   1.085       .  S
C448        C449   1.400       .  A
C448        C589   1.477       .  S
C449        H452   1.084       .  S
O453        C463   1.276       .  A
O453       Cu669   2.006   1_554  S
O454        C464   1.277       .  A
O454       Cu461   2.010       .  S
O455        C465   1.279       .  A
O455       Cu461   2.009       .  S
O456        C466   1.278       .  A
O456       Cu461   2.010       .  S
O457        C466   1.279       .  A
O457       Cu670   2.008       .  S
O458        C465   1.278       .  A
O458       Cu670   2.008       .  S
O459        C464   1.277       .  A
O459       Cu670   2.011       .  S
O460        C463   1.276       .  A
O460       Cu462   2.007   1_554  S
Cu461       O661   2.006       .  S
Cu461      Cu670   2.375       .  S
Cu462       O665   2.008       .  S
Cu462       O666   2.008       .  S
Cu462       O667   2.011       .  S
Cu462      Cu669   2.375       .  S
C463        C477   1.457       .  S
C464        C478   1.460       .  S
C465        C527   1.481       .  S
C466        C509   1.481       .  S
O467        C477   1.276       .  A
O467       Cu475   2.007       .  S
O468        C478   1.277       .  A
O468       Cu475   2.010       .  S
O469        C479   1.278       .  A
O469      Cu1307   2.009   1_455  S
O470        C480   1.279       .  A
O470       Cu475   2.007       .  S
O471        C480   1.278       .  A
O471       Cu476   2.009       .  S
O472        C479   1.278       .  A
O472      Cu1308   2.006   1_455  S
O473        C478   1.277       .  A
O473       Cu476   2.011       .  S
O474        C477   1.276       .  A
O474       Cu476   2.006       .  S
Cu475      O1301   2.009       .  S
Cu475      Cu476   2.375       .  S
Cu476      O1304   2.006       .  S
O481       Cu697   2.006   1_554  S
O482       Cu489   2.011       .  S
O483       Cu489   2.010       .  S
O484       Cu489   2.010       .  S
O485        C702   1.278       .  A
O485       Cu490   2.007       .  S
O486        C701   1.279       .  A
O486       Cu698   2.008       .  S
O487        C492   1.277       .  A
O487       Cu698   2.011       .  S
O488        C491   1.276       .  A
O488       Cu490   2.006   1_554  S
Cu489       O689   2.006       .  S
Cu490       O694   2.008       .  S
Cu490       O695   2.011       .  S
C493        C744   1.481   1_556  S
C493        O694   1.279       .  A
C494        C518   1.481       .  S
C494        O693   1.278       .  A
O495        C505   1.277       .  A
O495       Cu503   2.011       .  S
O496        C506   1.276   1_545  A
O496       Cu503   2.007       .  S
O497        C507   1.278       .  A
O497       Cu503   2.008   1_565  S
O498        C508   1.278       .  A
O499        C508   1.278       .  A
O500        C507   1.279       .  A
O500       Cu504   2.007       .  S
O501        C506   1.276       .  A
O501       Cu504   2.005       .  S
O502        C505   1.277   1_565  A
O502       Cu504   2.011       .  S
Cu503      Cu504   2.375   1_545  S
C509        C510   1.411       .  A
C509        C514   1.413       .  A
C510        C511   1.399       .  A
C510       H1347   1.083       .  S
C511        C512   1.397       .  A
C511       C1408   1.476       .  S
C512        C513   1.400       .  A
C512        H516   1.085       .  S
C513        C514   1.404       .  A
C513        C566   1.484       .  S
C514        H517   1.083       .  S
H515       C1342   1.083   1_455  S
C518        C523   1.413       .  A
C519        C520   1.400       .  A
C519        H524   1.083       .  S
C520        C579   1.475       .  S
C521        C522   1.400       .  A
C521        H525   1.085       .  S
C522        C523   1.403       .  A
C522        C559   1.481       .  S
C523        H526   1.084       .  S
C527        C528   1.413       .  A
C527        C532   1.411       .  A
C528        C529   1.404       .  A
C528       H1365   1.084       .  S
C529        C530   1.400       .  A
C529       C1388   1.482       .  S
C530        C531   1.397       .  A
C530        H534   1.085       .  S
C531        C532   1.398       .  A
C531        C546   1.473       .  S
C532        H535   1.083       .  S
H533       C1360   1.084   1_455  S
C536        C541   1.411       .  A
C536        C701   1.481       .  S
C537        C538   1.404       .  A
C537        H542   1.084       .  S
C538        C539   1.400   1_565  A
C538        C569   1.483       .  S
C539        H543   1.085       .  S
C540        C541   1.398       .  A
C540        C549   1.472       .  S
C541        H544   1.083       .  S
C545        C754   1.401   1_556  A
C545        C550   1.391       .  A
C545        H552   1.084       .  S
C546        C753   1.401       .  A
C546        C547   1.406       .  A
C547        C548   1.404       .  A
C547        F554   1.357       .  S
C548        C549   1.404       .  A
C548        H553   1.083       .  S
C549        C758   1.403       .  A
C550        C757   1.403   1_556  A
C550        F551   1.358       .  S
C555        C764   1.405   1_554  A
C555        C560   1.405       .  A
C555        H562   1.083       .  S
C556        C763   1.405       .  A
C556        C557   1.406       .  A
C556       C1361   1.482   1_455  S
C557        C558   1.393       .  A
C557       F1396   1.358   1_455  S
C558        C559   1.403       .  A
C558        H563   1.084       .  S
C559        C768   1.408       .  A
C560        C767   1.408   1_554  A
C560        F561   1.357       .  S
F564       C1389   1.358       .  S
C565        C566   1.403       .  A
C565        C570   1.391       .  A
C565        H572   1.084       .  S
C566        C775   1.409       .  A
C567        C774   1.409   1_554  A
C567        C568   1.406       .  A
C567        F574   1.357       .  S
C568        C777   1.406   1_554  A
C568        H573   1.083       .  S
C569        C776   1.406       .  A
C569        C570   1.407       .  A
C570        F571   1.358       .  S
C575        C576   1.404       .  A
C575        C580   1.402       .  A
C575        H582   1.083       .  S
C576        C785   1.404       .  A
C576       C1343   1.476   1_455  S
C577        C784   1.404       .  A
C577        C578   1.394       .  A
C577       F1416   1.358       .  S
C578        C787   1.402       .  A
C578        H583   1.084       .  S
C579        C786   1.402       .  A
C579        C580   1.406       .  A
C580        F581   1.357       .  S
F584       C1409   1.358       .  S
C585        C586   1.402       .  A
C585        C590   1.392       .  A
C585        H592   1.083       .  S
C586        C587   1.406       .  A
C587        C588   1.403       .  A
C587        F594   1.357       .  S
C588        C589   1.405       .  A
C588        H593   1.083       .  S
C589        C590   1.404       .  A
C590        F591   1.358       .  S
C595        C596   1.403       .  A
C595        C600   1.393       .  A
C595        H602   1.083       .  S
C596        C597   1.407       .  A
C597        C598   1.404       .  A
C597        F604   1.357       .  S
C598        C599   1.405       .  A
C598        H603   1.083       .  S
C599        C600   1.405       .  A
C600        F601   1.358       .  S
C605        C606   1.405       .  A
C605        C610   1.403       .  A
C605        H612   1.083       .  S
C606        C607   1.405       .  A
C607        C608   1.392       .  A
C607        F614   1.358       .  S
C608        C609   1.402       .  A
C608        H613   1.084       .  S
C609        C610   1.407       .  A
C610        F611   1.357       .  S
C615        C616   1.403       .  A
C615        C620   1.392       .  A
C615        H622   1.084       .  S
C616        C617   1.407       .  A
C617        C618   1.404       .  A
C617        F624   1.357       .  S
C618        C619   1.405       .  A
C618        H623   1.083       .  S
C619        C620   1.405       .  A
C620        F621   1.358       .  S
C625        C626   1.412       .  A
C625        C630   1.411       .  A
C625        C688   1.481       .  S
C626        C627   1.402       .  A
C626        H631   1.083       .  S
C627        C628   1.398       .  A
C627        C824   1.478       .  S
C628        C629   1.398       .  A
C628        H632   1.085       .  S
C629        C630   1.400       .  A
C629        C814   1.477       .  S
C630        H633   1.084       .  S
C634        C635   1.411       .  A
C634        C639   1.412       .  A
C634        C715   1.481       .  S
C635        C636   1.400       .  A
C635        H640   1.084       .  S
C636        C637   1.398       .  A
C636        C817   1.477       .  S
C637        C638   1.398       .  A
C637        H641   1.085       .  S
C638        C639   1.402       .  A
C638        C804   1.478       .  S
C639        H642   1.083       .  S
C643        C644   1.412       .  A
C643        C648   1.411       .  A
C643        C716   1.480       .  S
C644        C645   1.401       .  A
C644        H649   1.083       .  S
C645        C646   1.398       .  A
C645        C827   1.478       .  S
C646        C647   1.398       .  A
C646        H650   1.085       .  S
C647        C648   1.400       .  A
C647        C794   1.477       .  S
C648        H651   1.084       .  S
C652        C653   1.412       .  A
C652        C657   1.411       .  A
C652        C687   1.480       .  S
C653        C654   1.402       .  A
C653        H658   1.083       .  S
C654        C655   1.398       .  A
C654        C807   1.477       .  S
C655        C656   1.398       .  A
C655        H659   1.085       .  S
C656        C657   1.400       .  A
C656        C797   1.477       .  S
C657        H660   1.084       .  S
O661        C671   1.276       .  A
O662        C672   1.277       .  A
O662       Cu669   2.010       .  S
O663        C673   1.279       .  A
O663       Cu669   2.009       .  S
O664        C674   1.278       .  A
O664       Cu669   2.010       .  S
O665        C674   1.279       .  A
O666        C673   1.278       .  A
O667        C672   1.277       .  A
O668        C671   1.276       .  A
O668       Cu670   2.007       .  S
C671        C685   1.457       .  S
C672        C686   1.460       .  S
C673        C735   1.481   1_556  S
C674        C717   1.481       .  S
O675        C685   1.276       .  A
O675       Cu683   2.007       .  S
O676        C686   1.277       .  A
O676       Cu683   2.010       .  S
O677        C687   1.278       .  A
O677      Cu1515   2.009   1_455  S
O678        C688   1.279       .  A
O678       Cu683   2.007       .  S
O679        C688   1.278       .  A
O679       Cu684   2.009       .  S
O680        C687   1.278       .  A
O680      Cu1516   2.006   1_455  S
O681        C686   1.277       .  A
O681       Cu684   2.011       .  S
O682        C685   1.276       .  A
O682       Cu684   2.006       .  S
Cu683      O1509   2.009       .  S
Cu683      Cu684   2.375       .  S
Cu684      O1512   2.006       .  S
O690       Cu697   2.011       .  S
O691       Cu697   2.010       .  S
O692       Cu697   2.010       .  S
O693       Cu698   2.007       .  S
O695        C700   1.277       .  A
O696        C699   1.276       .  A
O696       Cu698   2.006       .  S
C702        C726   1.481       .  S
O703        C713   1.277       .  A
O703       Cu711   2.011       .  S
O704        C714   1.276   1_545  A
O704       Cu711   2.007       .  S
O705        C715   1.278       .  A
O705       Cu711   2.008   1_565  S
O706        C716   1.278       .  A
O707        C716   1.278       .  A
O708        C715   1.279       .  A
O708       Cu712   2.007       .  S
O709        C714   1.276       .  A
O709       Cu712   2.005       .  S
O710        C713   1.277   1_565  A
O710       Cu712   2.011       .  S
Cu711      Cu712   2.375   1_545  S
C717        C718   1.411   1_556  A
C717        C722   1.413       .  A
C718        C719   1.399       .  A
C718       H1555   1.083       .  S
C719        C720   1.397   1_554  A
C719       C1616   1.476       .  S
C720        C721   1.400       .  A
C720        H724   1.085   1_556  S
C721        C722   1.404       .  A
C721        C774   1.484       .  S
C722        H725   1.083       .  S
H723       C1550   1.083   1_455  S
C726        C731   1.413       .  A
C727        C728   1.400   1_556  A
C727        H732   1.083   1_556  S
C728        C787   1.475       .  S
C729        C730   1.400       .  A
C729        H733   1.085       .  S
C730        C731   1.403       .  A
C730        C767   1.481       .  S
C731        H734   1.084       .  S
C735        C736   1.413   1_554  A
C735        C740   1.411       .  A
C736        C737   1.404       .  A
C736       H1573   1.084       .  S
C737        C738   1.400   1_556  A
C737       C1596   1.482       .  S
C738        C739   1.397       .  A
C738        H742   1.085       .  S
C739        C740   1.398       .  A
C739        C754   1.473       .  S
C740        H743   1.083       .  S
H741       C1568   1.084   1_455  S
C744        C749   1.411       .  A
C745        C746   1.404   1_556  A
C745        H750   1.084       .  S
C746        C747   1.400   1_565  A
C746        C777   1.483   1_554  S
C747        H751   1.085       .  S
C748        C749   1.398       .  A
C748        C757   1.472       .  S
C749        H752   1.083       .  S
C753        C758   1.391       .  A
C753        H760   1.084       .  S
C754        C755   1.406       .  A
C755        C756   1.404       .  A
C755        F762   1.357       .  S
C756        C757   1.404       .  A
C756        H761   1.083       .  S
C758        F759   1.358       .  S
C763        C768   1.405       .  A
C763        H770   1.083       .  S
C764        C765   1.406       .  A
C764       C1569   1.482   1_455  S
C765        C766   1.393       .  A
C765       F1604   1.358   1_455  S
C766        C767   1.403       .  A
C766        H771   1.084       .  S
C768        F769   1.357       .  S
F772       C1597   1.358       .  S
C773        C774   1.403       .  A
C773        C778   1.391       .  A
C773        H780   1.084       .  S
C775        C776   1.406       .  A
C775        F782   1.357       .  S
C776        H781   1.083       .  S
C777        C778   1.407       .  A
C778        F779   1.358       .  S
C783        C784   1.404   1_556  A
C783        C788   1.402       .  A
C783        H790   1.083       .  S
C784       C1551   1.476   1_455  S
C785        C786   1.394       .  A
C785       F1624   1.358       .  S
C786        H791   1.084       .  S
C787        C788   1.406   1_554  A
C788        F789   1.357       .  S
F792       C1617   1.358       .  S
C793        C794   1.402       .  A
C793        C798   1.392       .  A
C793        H800   1.083       .  S
C794        C795   1.406       .  A
C795        C796   1.403       .  A
C795        F802   1.357       .  S
C796        C797   1.405       .  A
C796        H801   1.083       .  S
C797        C798   1.404       .  A
C798        F799   1.358       .  S
C803        C804   1.403       .  A
C803        C808   1.393       .  A
C803        H810   1.083       .  S
C804        C805   1.407       .  A
C805        C806   1.404       .  A
C805        F812   1.357       .  S
C806        C807   1.405       .  A
C806        H811   1.083       .  S
C807        C808   1.405       .  A
C808        F809   1.358       .  S
C813        C814   1.405       .  A
C813        C818   1.403       .  A
C813        H820   1.083       .  S
C814        C815   1.405       .  A
C815        C816   1.392       .  A
C815        F822   1.358       .  S
C816        C817   1.402       .  A
C816        H821   1.084       .  S
C817        C818   1.407       .  A
C818        F819   1.357       .  S
C823        C824   1.403       .  A
C823        C828   1.392       .  A
C823        H830   1.084       .  S
C824        C825   1.407       .  A
C825        C826   1.404       .  A
C825        F832   1.357       .  S
C826        C827   1.405       .  A
C826        H831   1.083       .  S
C827        C828   1.405       .  A
C828        F829   1.358       .  S
C833        C834   1.412       .  A
C833        C838   1.411       .  A
C833        C896   1.481       .  S
C834        C835   1.402       .  A
C834        H839   1.083       .  S
C835        C836   1.398       .  A
C835       C1032   1.478       .  S
C836        C837   1.398       .  A
C836        H840   1.085       .  S
C837        C838   1.400       .  A
C837       C1022   1.477       .  S
C838        H841   1.084       .  S
C842        C843   1.411       .  A
C842        C847   1.412       .  A
C842        C923   1.481       .  S
C843        C844   1.400       .  A
C843        H848   1.084       .  S
C844        C845   1.398       .  A
C844       C1025   1.477       .  S
C845        C846   1.398       .  A
C845        H849   1.085       .  S
C846        C847   1.402       .  A
C846       C1012   1.478       .  S
C847        H850   1.083       .  S
C851        C852   1.412       .  A
C851        C856   1.411       .  A
C851        C924   1.480       .  S
C852        C853   1.401       .  A
C852        H857   1.083       .  S
C853        C854   1.398       .  A
C853       C1035   1.478       .  S
C854        C855   1.398       .  A
C854        H858   1.085       .  S
C855        C856   1.400       .  A
C855       C1002   1.477       .  S
C856        H859   1.084       .  S
C860        C861   1.412       .  A
C860        C865   1.411       .  A
C860        C895   1.480       .  S
C861        C862   1.402       .  A
C861        H866   1.083       .  S
C862        C863   1.398       .  A
C862       C1015   1.477       .  S
C863        C864   1.398       .  A
C863        H867   1.085       .  S
C864        C865   1.400       .  A
C864       C1005   1.477       .  S
C865        H868   1.084       .  S
O869        C879   1.276       .  A
O869      Cu1085   2.006   1_554  S
O870        C880   1.277       .  A
O870       Cu877   2.010       .  S
O871        C881   1.279       .  A
O871       Cu877   2.009       .  S
O872        C882   1.278       .  A
O872       Cu877   2.010       .  S
O873        C882   1.279       .  A
O873      Cu1086   2.008       .  S
O874        C881   1.278       .  A
O874      Cu1086   2.008       .  S
O875        C880   1.277       .  A
O875      Cu1086   2.011       .  S
O876        C879   1.276       .  A
O876       Cu878   2.007   1_554  S
Cu877      O1077   2.006       .  S
Cu877     Cu1086   2.375       .  S
Cu878      O1081   2.008       .  S
Cu878      O1082   2.008       .  S
Cu878      O1083   2.011       .  S
Cu878     Cu1085   2.375       .  S
C879        C893   1.457       .  S
C880        C894   1.460       .  S
C881        C943   1.481       .  S
C882        C925   1.481       .  S
O883        C893   1.276       .  A
O883       Cu891   2.007       .  S
O884        C894   1.277       .  A
O884       Cu891   2.010       .  S
O885        C895   1.278       .  A
O886        C896   1.279       .  A
O886       Cu891   2.007       .  S
O887        C896   1.278       .  A
O887       Cu892   2.009       .  S
O888        C895   1.278       .  A
O889        C894   1.277       .  A
O889       Cu892   2.011       .  S
O890        C893   1.276       .  A
O890       Cu892   2.006       .  S
Cu891      Cu892   2.375       .  S
O897       C1323   1.276       .  A
O897      Cu1113   2.006   1_554  S
O898       C1324   1.277       .  A
O898       Cu905   2.011       .  S
O899       C1533   1.278       .  A
O899       Cu905   2.010       .  S
O900       C1326   1.279       .  A
O900       Cu905   2.010       .  S
O901       C1118   1.278   1_545  A
O901       Cu906   2.007       .  S
O902       C1117   1.279       .  A
O902      Cu1114   2.008       .  S
O903        C908   1.277       .  A
O903      Cu1114   2.011       .  S
O904        C907   1.276   1_545  A
O904       Cu906   2.006   1_554  S
Cu905      O1105   2.006       .  S
Cu905     Cu1530   2.375       .  S
Cu906      O1110   2.008       .  S
Cu906      O1111   2.011       .  S
Cu906     Cu1529   2.375   1_545  S
C907       C1338   1.456       .  S
C907       O1313   1.276       .  A
C908       C1337   1.460       .  S
C908       O1314   1.277   1_545  A
C909       C1160   1.481   1_556  S
C909       O1523   1.278   1_545  A
C909       O1110   1.279       .  A
C910        C934   1.481       .  S
C910       O1316   1.279       .  A
C910       O1109   1.278   1_565  A
O911        C921   1.277       .  A
O911       Cu919   2.011       .  S
O912        C922   1.276       .  A
O912       Cu919   2.007       .  S
O913        C923   1.278       .  A
O913       Cu919   2.008       .  S
O914        C924   1.278       .  A
O914      Cu1335   2.006       .  S
O915        C924   1.278       .  A
O915      Cu1336   2.009   1_545  S
O916        C923   1.279       .  A
O916       Cu920   2.007       .  S
O917        C922   1.276       .  A
O917       Cu920   2.006       .  S
O918        C921   1.277       .  A
O918       Cu920   2.011       .  S
Cu919      O1330   2.006       .  S
Cu919      Cu920   2.375       .  S
Cu920      O1331   2.009       .  S
C921       C1324   1.460       .  S
C922       C1323   1.456       .  S
C925        C926   1.411       .  A
C925        C930   1.413       .  A
C926        C927   1.399       .  A
C927        C928   1.397       .  A
C928        C929   1.400       .  A
C928        H932   1.085       .  S
C929        C930   1.404       .  A
C929        C982   1.484       .  S
C930        H933   1.083       .  S
C934       C1351   1.411       .  A
C934        C939   1.413   1_565  A
C935       C1350   1.411       .  A
C935        C936   1.400       .  A
C935        H940   1.083       .  S
C936       C1353   1.398       .  A
C936        C995   1.475       .  S
C937       C1352   1.398       .  A
C937        C938   1.400   1_565  A
C937        H941   1.085       .  S
C938        C939   1.403       .  A
C938        C975   1.481       .  S
C939        H942   1.084       .  S
C943        C944   1.413       .  A
C943        C948   1.411       .  A
C944        C945   1.404       .  A
C945        C946   1.400       .  A
C946        C947   1.397       .  A
C946        H950   1.085       .  S
C947        C948   1.398       .  A
C947        C962   1.473       .  S
C948        H951   1.083       .  S
C952       C1369   1.413   1_545  A
C952        C957   1.411       .  A
C952       C1117   1.481       .  S
C953       C1368   1.413       .  A
C953        C954   1.404       .  A
C953        H958   1.084       .  S
C954        C955   1.400       .  A
C954        C985   1.483       .  S
C955       C1372   1.396       .  A
C955        H959   1.085       .  S
C956       C1371   1.396       .  A
C956        C957   1.398       .  A
C956        C965   1.472       .  S
C957        H960   1.083       .  S
C961       C1170   1.401   1_556  A
C961        C966   1.391       .  A
C961        H968   1.084       .  S
C962       C1169   1.401       .  A
C962        C963   1.406       .  A
C963        C964   1.404       .  A
C963        F970   1.357       .  S
C964        C965   1.404       .  A
C964        H969   1.083       .  S
C965       C1174   1.403       .  A
C966       C1173   1.403   1_556  A
C966        F967   1.358       .  S
C971       C1180   1.405   1_554  A
C971        C976   1.405       .  A
C971        H978   1.083       .  S
C972       C1179   1.405       .  A
C972        C973   1.406       .  A
C973        C974   1.393       .  A
C974        C975   1.403       .  A
C974        H979   1.084       .  S
C975       C1184   1.408       .  A
C976       C1183   1.408   1_554  A
C976        F977   1.357       .  S
C981        C982   1.403       .  A
C981        C986   1.391       .  A
C981        H988   1.084       .  S
C982       C1191   1.409       .  A
C983       C1190   1.409   1_554  A
C983        C984   1.406       .  A
C983        F990   1.357       .  S
C984       C1193   1.406   1_554  A
C984        H989   1.083       .  S
C985       C1192   1.406       .  A
C985        C986   1.407       .  A
C986        F987   1.358       .  S
C991        C992   1.404       .  A
C991        C996   1.402       .  A
C991        H998   1.083       .  S
C992       C1201   1.404       .  A
C993       C1200   1.404       .  A
C993        C994   1.394       .  A
C994       C1203   1.402       .  A
C994        H999   1.084       .  S
C995       C1202   1.402       .  A
C995        C996   1.406       .  A
C996        F997   1.357       .  S
C1001      C1002   1.402       .  A
C1001      C1006   1.392       .  A
C1001      H1008   1.083       .  S
C1002      C1003   1.406       .  A
C1003      C1004   1.403       .  A
C1003      F1010   1.357       .  S
C1004      C1005   1.405       .  A
C1004      H1009   1.083       .  S
C1005      C1006   1.404       .  A
C1006      F1007   1.358       .  S
C1011      C1012   1.403       .  A
C1011      C1016   1.393       .  A
C1011      H1018   1.083       .  S
C1012      C1013   1.407       .  A
C1013      C1014   1.404       .  A
C1013      F1020   1.357       .  S
C1014      C1015   1.405       .  A
C1014      H1019   1.083       .  S
C1015      C1016   1.405       .  A
C1016      F1017   1.358       .  S
C1021      C1022   1.405       .  A
C1021      C1026   1.403       .  A
C1021      H1028   1.083       .  S
C1022      C1023   1.405       .  A
C1023      C1024   1.392       .  A
C1023      F1030   1.358       .  S
C1024      C1025   1.402       .  A
C1024      H1029   1.084       .  S
C1025      C1026   1.407       .  A
C1026      F1027   1.357       .  S
C1031      C1032   1.403       .  A
C1031      C1036   1.392       .  A
C1031      H1038   1.084       .  S
C1032      C1033   1.407       .  A
C1033      C1034   1.404       .  A
C1033      F1040   1.357       .  S
C1034      C1035   1.405       .  A
C1034      H1039   1.083       .  S
C1035      C1036   1.405       .  A
C1036      F1037   1.358       .  S
C1041      C1042   1.412       .  A
C1041      C1046   1.411       .  A
C1041      C1104   1.481       .  S
C1042      C1043   1.402       .  A
C1042      H1047   1.083       .  S
C1043      C1044   1.398       .  A
C1043      C1240   1.478       .  S
C1044      C1045   1.398       .  A
C1044      H1048   1.085       .  S
C1045      C1046   1.400       .  A
C1045      C1230   1.477       .  S
C1046      H1049   1.084       .  S
C1050      C1051   1.411       .  A
C1050      C1055   1.412       .  A
C1050      C1131   1.481       .  S
C1051      C1052   1.400       .  A
C1051      H1056   1.084       .  S
C1052      C1053   1.398       .  A
C1052      C1233   1.477       .  S
C1053      C1054   1.398       .  A
C1053      H1057   1.085       .  S
C1054      C1055   1.402       .  A
C1054      C1220   1.478       .  S
C1055      H1058   1.083       .  S
C1059      C1060   1.412       .  A
C1059      C1064   1.411       .  A
C1059      C1132   1.480       .  S
C1060      C1061   1.401       .  A
C1060      H1065   1.083       .  S
C1061      C1062   1.398       .  A
C1061      C1243   1.478       .  S
C1062      C1063   1.398       .  A
C1062      H1066   1.085       .  S
C1063      C1064   1.400       .  A
C1063      C1210   1.477       .  S
C1064      H1067   1.084       .  S
C1068      C1069   1.412       .  A
C1068      C1073   1.411       .  A
C1068      C1103   1.480       .  S
C1069      C1070   1.402       .  A
C1069      H1074   1.083       .  S
C1070      C1071   1.398       .  A
C1070      C1223   1.477       .  S
C1071      C1072   1.398       .  A
C1071      H1075   1.085       .  S
C1072      C1073   1.400       .  A
C1072      C1213   1.477       .  S
C1073      H1076   1.084       .  S
O1077      C1087   1.276       .  A
O1078      C1088   1.277       .  A
O1078     Cu1085   2.010       .  S
O1079      C1089   1.279       .  A
O1079     Cu1085   2.009       .  S
O1080      C1090   1.278       .  A
O1080     Cu1085   2.010       .  S
O1081      C1090   1.279       .  A
O1082      C1089   1.278       .  A
O1083      C1088   1.277       .  A
O1084      C1087   1.276       .  A
O1084     Cu1086   2.007       .  S
C1087      C1101   1.457       .  S
C1088      C1102   1.460       .  S
C1089      C1151   1.481   1_556  S
C1090      C1133   1.481       .  S
O1091      C1101   1.276       .  A
O1091     Cu1099   2.007       .  S
O1092      C1102   1.277       .  A
O1092     Cu1099   2.010       .  S
O1093      C1103   1.278       .  A
O1094      C1104   1.279       .  A
O1094     Cu1099   2.007       .  S
O1095      C1104   1.278       .  A
O1095     Cu1100   2.009       .  S
O1096      C1103   1.278       .  A
O1097      C1102   1.277       .  A
O1097     Cu1100   2.011       .  S
O1098      C1101   1.276       .  A
O1098     Cu1100   2.006       .  S
Cu1099    Cu1100   2.375       .  S
O1105      C1531   1.276       .  A
O1106      C1532   1.277       .  A
O1106     Cu1113   2.011       .  S
O1107      C1325   1.278       .  A
O1107     Cu1113   2.010       .  S
O1108      C1534   1.279       .  A
O1108     Cu1113   2.010       .  S
O1109     Cu1114   2.007       .  S
O1111      C1116   1.277       .  A
O1112      C1115   1.276   1_545  A
O1112     Cu1114   2.006       .  S
Cu1113    Cu1322   2.375       .  S
Cu1114    Cu1321   2.375   1_545  S
C1115      C1546   1.456       .  S
C1115      O1521   1.276       .  A
C1116      C1545   1.460       .  S
C1116      O1522   1.277   1_545  A
C1117      O1315   1.278   1_545  A
C1118      C1142   1.481       .  S
C1118      O1524   1.279       .  A
O1119      C1129   1.277       .  A
O1119     Cu1127   2.011       .  S
O1120      C1130   1.276       .  A
O1120     Cu1127   2.007       .  S
O1121      C1131   1.278       .  A
O1121     Cu1127   2.008       .  S
O1122      C1132   1.278       .  A
O1122     Cu1543   2.006       .  S
O1123      C1132   1.278       .  A
O1123     Cu1544   2.009   1_545  S
O1124      C1131   1.279       .  A
O1124     Cu1128   2.007       .  S
O1125      C1130   1.276       .  A
O1125     Cu1128   2.005       .  S
O1126      C1129   1.277       .  A
O1126     Cu1128   2.011       .  S
Cu1127     O1538   2.006       .  S
Cu1127    Cu1128   2.375       .  S
Cu1128     O1539   2.009       .  S
C1129      C1532   1.460       .  S
C1130      C1531   1.456       .  S
C1133      C1134   1.411   1_556  A
C1133      C1138   1.413       .  A
C1134      C1135   1.399       .  A
C1135      C1136   1.397   1_554  A
C1136      C1137   1.400       .  A
C1136      H1140   1.085   1_556  S
C1137      C1138   1.404       .  A
C1137      C1190   1.484       .  S
C1138      H1141   1.083       .  S
C1142      C1559   1.411       .  A
C1142      C1147   1.413   1_565  A
C1143      C1558   1.411       .  A
C1143      C1144   1.400   1_556  A
C1143      H1148   1.083   1_556  S
C1144      C1561   1.398   1_554  A
C1144      C1203   1.475       .  S
C1145      C1560   1.398   1_556  A
C1145      C1146   1.400   1_565  A
C1145      H1149   1.085       .  S
C1146      C1147   1.403       .  A
C1146      C1183   1.481       .  S
C1147      H1150   1.084       .  S
C1151      C1152   1.413   1_554  A
C1151      C1156   1.411       .  A
C1152      C1153   1.404       .  A
C1153      C1154   1.400   1_556  A
C1154      C1155   1.397       .  A
C1154      H1158   1.085       .  S
C1155      C1156   1.398       .  A
C1155      C1170   1.473       .  S
C1156      H1159   1.083       .  S
C1160      C1577   1.413   1_544  A
C1160      C1165   1.411       .  A
C1161      C1576   1.413   1_556  A
C1161      C1162   1.404   1_556  A
C1161      H1166   1.084       .  S
C1162      C1163   1.400       .  A
C1162      C1193   1.483   1_554  S
C1163      C1580   1.396       .  A
C1163      H1167   1.085       .  S
C1164      C1579   1.396       .  A
C1164      C1165   1.398       .  A
C1164      C1173   1.472       .  S
C1165      H1168   1.083       .  S
C1169      C1174   1.391       .  A
C1169      H1176   1.084       .  S
C1170      C1171   1.406       .  A
C1171      C1172   1.404       .  A
C1171      F1178   1.357       .  S
C1172      C1173   1.404       .  A
C1172      H1177   1.083       .  S
C1174      F1175   1.358       .  S
C1179      C1184   1.405       .  A
C1179      H1186   1.083       .  S
C1180      C1181   1.406       .  A
C1181      C1182   1.393       .  A
C1182      C1183   1.403       .  A
C1182      H1187   1.084       .  S
C1184      F1185   1.357       .  S
C1189      C1190   1.403       .  A
C1189      C1194   1.391       .  A
C1189      H1196   1.084       .  S
C1191      C1192   1.406       .  A
C1191      F1198   1.357       .  S
C1192      H1197   1.083       .  S
C1193      C1194   1.407       .  A
C1194      F1195   1.358       .  S
C1199      C1200   1.404   1_556  A
C1199      C1204   1.402       .  A
C1199      H1206   1.083       .  S
C1201      C1202   1.394       .  A
C1202      H1207   1.084       .  S
C1203      C1204   1.406   1_554  A
C1204      F1205   1.357       .  S
C1209      C1210   1.402       .  A
C1209      C1214   1.392       .  A
C1209      H1216   1.083       .  S
C1210      C1211   1.406       .  A
C1211      C1212   1.403       .  A
C1211      F1218   1.357       .  S
C1212      C1213   1.405       .  A
C1212      H1217   1.083       .  S
C1213      C1214   1.404       .  A
C1214      F1215   1.358       .  S
C1219      C1220   1.403       .  A
C1219      C1224   1.393       .  A
C1219      H1226   1.083       .  S
C1220      C1221   1.407       .  A
C1221      C1222   1.404       .  A
C1221      F1228   1.357       .  S
C1222      C1223   1.405       .  A
C1222      H1227   1.083       .  S
C1223      C1224   1.405       .  A
C1224      F1225   1.358       .  S
C1229      C1230   1.405       .  A
C1229      C1234   1.403       .  A
C1229      H1236   1.083       .  S
C1230      C1231   1.405       .  A
C1231      C1232   1.392       .  A
C1231      F1238   1.358       .  S
C1232      C1233   1.402       .  A
C1232      H1237   1.084       .  S
C1233      C1234   1.407       .  A
C1234      F1235   1.357       .  S
C1239      C1240   1.403       .  A
C1239      C1244   1.392       .  A
C1239      H1246   1.084       .  S
C1240      C1241   1.407       .  A
C1241      C1242   1.404       .  A
C1241      F1248   1.357       .  S
C1242      C1243   1.405       .  A
C1242      H1247   1.083       .  S
C1243      C1244   1.405       .  A
C1244      F1245   1.358       .  S
C1249      C1250   1.412       .  A
C1249      C1254   1.411       .  A
C1249      C1312   1.481       .  S
C1250      C1251   1.402       .  A
C1250      H1255   1.083       .  S
C1251      C1252   1.398       .  A
C1251      C1448   1.478       .  S
C1252      C1253   1.398       .  A
C1252      H1256   1.085       .  S
C1253      C1254   1.400       .  A
C1253      C1438   1.477       .  S
C1254      H1257   1.084       .  S
C1258      C1259   1.411       .  A
C1258      C1263   1.412       .  A
C1258      C1339   1.481       .  S
C1259      C1260   1.400       .  A
C1259      H1264   1.084       .  S
C1260      C1261   1.398       .  A
C1260      C1441   1.477       .  S
C1261      C1262   1.398       .  A
C1261      H1265   1.085       .  S
C1262      C1263   1.402       .  A
C1262      C1428   1.478       .  S
C1263      H1266   1.083       .  S
C1267      C1268   1.412       .  A
C1267      C1272   1.411       .  A
C1267      C1340   1.480       .  S
C1268      C1269   1.401       .  A
C1268      H1273   1.083       .  S
C1269      C1270   1.398       .  A
C1269      C1451   1.478       .  S
C1270      C1271   1.398       .  A
C1270      H1274   1.085       .  S
C1271      C1272   1.400       .  A
C1271      C1418   1.477       .  S
C1272      H1275   1.084       .  S
C1276      C1277   1.412       .  A
C1276      C1281   1.411       .  A
C1276      C1311   1.480       .  S
C1277      C1278   1.402       .  A
C1277      H1282   1.083       .  S
C1278      C1279   1.398       .  A
C1278      C1431   1.477       .  S
C1279      C1280   1.398       .  A
C1279      H1283   1.085       .  S
C1280      C1281   1.400       .  A
C1280      C1421   1.477       .  S
C1281      H1284   1.084       .  S
O1285      C1295   1.276       .  A
O1285     Cu1501   2.006   1_554  S
O1286      C1296   1.277       .  A
O1286     Cu1293   2.010       .  S
O1287      C1297   1.279       .  A
O1287     Cu1293   2.009       .  S
O1288      C1298   1.278       .  A
O1288     Cu1293   2.010       .  S
O1289      C1298   1.279       .  A
O1289     Cu1502   2.008       .  S
O1290      C1297   1.278       .  A
O1290     Cu1502   2.008       .  S
O1291      C1296   1.277       .  A
O1291     Cu1502   2.011       .  S
O1292      C1295   1.276       .  A
O1292     Cu1294   2.007   1_554  S
Cu1293     O1493   2.006       .  S
Cu1293    Cu1502   2.375       .  S
Cu1294     O1497   2.008       .  S
Cu1294     O1498   2.008       .  S
Cu1294     O1499   2.011       .  S
Cu1294    Cu1501   2.375       .  S
C1295      C1309   1.457       .  S
C1296      C1310   1.460       .  S
C1297      C1359   1.481       .  S
C1298      C1341   1.481       .  S
O1299      C1309   1.276       .  A
O1299     Cu1307   2.007       .  S
O1300      C1310   1.277       .  A
O1300     Cu1307   2.010       .  S
O1301      C1311   1.278       .  A
O1302      C1312   1.279       .  A
O1302     Cu1307   2.007       .  S
O1303      C1312   1.278       .  A
O1303     Cu1308   2.009       .  S
O1304      C1311   1.278       .  A
O1305      C1310   1.277       .  A
O1305     Cu1308   2.011       .  S
O1306      C1309   1.276       .  A
O1306     Cu1308   2.006       .  S
Cu1307    Cu1308   2.375       .  S
O1313     Cu1529   2.006   1_554  S
O1314     Cu1321   2.011       .  S
O1315     Cu1321   2.010       .  S
O1316     Cu1321   2.010       .  S
O1317      C1534   1.278       .  A
O1317     Cu1322   2.007       .  S
O1318      C1533   1.279       .  A
O1318     Cu1530   2.008       .  S
O1319      C1324   1.277       .  A
O1319     Cu1530   2.011       .  S
O1320      C1323   1.276       .  A
O1320     Cu1322   2.006   1_554  S
Cu1321     O1521   2.006       .  S
Cu1322     O1526   2.008       .  S
Cu1322     O1527   2.011       .  S
C1325      C1576   1.481   1_556  S
C1325      O1526   1.279       .  A
C1326      C1350   1.481       .  S
C1326      O1525   1.278       .  A
O1327      C1337   1.277       .  A
O1327     Cu1335   2.011       .  S
O1328      C1338   1.276   1_545  A
O1328     Cu1335   2.007       .  S
O1329      C1339   1.278       .  A
O1329     Cu1335   2.008   1_565  S
O1330      C1340   1.278       .  A
O1331      C1340   1.278       .  A
O1332      C1339   1.279       .  A
O1332     Cu1336   2.007       .  S
O1333      C1338   1.276       .  A
O1333     Cu1336   2.005       .  S
O1334      C1337   1.277   1_565  A
O1334     Cu1336   2.011       .  S
Cu1335    Cu1336   2.375   1_545  S
C1341      C1342   1.411       .  A
C1341      C1346   1.413       .  A
C1342      C1343   1.399       .  A
C1343      C1344   1.397       .  A
C1344      C1345   1.400       .  A
C1344      H1348   1.085       .  S
C1345      C1346   1.404       .  A
C1345      C1398   1.484       .  S
C1346      H1349   1.083       .  S
C1350      C1355   1.413       .  A
C1351      C1352   1.400       .  A
C1351      H1356   1.083       .  S
C1352      C1411   1.475       .  S
C1353      C1354   1.400       .  A
C1353      H1357   1.085       .  S
C1354      C1355   1.403       .  A
C1354      C1391   1.481       .  S
C1355      H1358   1.084       .  S
C1359      C1360   1.413       .  A
C1359      C1364   1.411       .  A
C1360      C1361   1.404       .  A
C1361      C1362   1.400       .  A
C1362      C1363   1.397       .  A
C1362      H1366   1.085       .  S
C1363      C1364   1.398       .  A
C1363      C1378   1.473       .  S
C1364      H1367   1.083       .  S
C1368      C1373   1.411       .  A
C1368      C1533   1.481       .  S
C1369      C1370   1.404       .  A
C1369      H1374   1.084       .  S
C1370      C1371   1.400   1_565  A
C1370      C1401   1.483       .  S
C1371      H1375   1.085       .  S
C1372      C1373   1.398       .  A
C1372      C1381   1.472       .  S
C1373      H1376   1.083       .  S
C1377      C1586   1.401   1_556  A
C1377      C1382   1.391       .  A
C1377      H1384   1.084       .  S
C1378      C1585   1.401       .  A
C1378      C1379   1.406       .  A
C1379      C1380   1.404       .  A
C1379      F1386   1.357       .  S
C1380      C1381   1.404       .  A
C1380      H1385   1.083       .  S
C1381      C1590   1.403       .  A
C1382      C1589   1.403   1_556  A
C1382      F1383   1.358       .  S
C1387      C1596   1.405   1_554  A
C1387      C1392   1.405       .  A
C1387      H1394   1.083       .  S
C1388      C1595   1.405       .  A
C1388      C1389   1.406       .  A
C1389      C1390   1.393       .  A
C1390      C1391   1.403       .  A
C1390      H1395   1.084       .  S
C1391      C1600   1.408       .  A
C1392      C1599   1.408   1_554  A
C1392      F1393   1.357       .  S
C1397      C1398   1.403       .  A
C1397      C1402   1.391       .  A
C1397      H1404   1.084       .  S
C1398      C1607   1.409       .  A
C1399      C1606   1.409   1_554  A
C1399      C1400   1.406       .  A
C1399      F1406   1.357       .  S
C1400      C1609   1.406   1_554  A
C1400      H1405   1.083       .  S
C1401      C1608   1.406       .  A
C1401      C1402   1.407       .  A
C1402      F1403   1.358       .  S
C1407      C1408   1.404       .  A
C1407      C1412   1.402       .  A
C1407      H1414   1.083       .  S
C1408      C1617   1.404       .  A
C1409      C1616   1.404       .  A
C1409      C1410   1.394       .  A
C1410      C1619   1.402       .  A
C1410      H1415   1.084       .  S
C1411      C1618   1.402       .  A
C1411      C1412   1.406       .  A
C1412      F1413   1.357       .  S
C1417      C1418   1.402       .  A
C1417      C1422   1.392       .  A
C1417      H1424   1.083       .  S
C1418      C1419   1.406       .  A
C1419      C1420   1.403       .  A
C1419      F1426   1.357       .  S
C1420      C1421   1.405       .  A
C1420      H1425   1.083       .  S
C1421      C1422   1.404       .  A
C1422      F1423   1.358       .  S
C1427      C1428   1.403       .  A
C1427      C1432   1.393       .  A
C1427      H1434   1.083       .  S
C1428      C1429   1.407       .  A
C1429      C1430   1.404       .  A
C1429      F1436   1.357       .  S
C1430      C1431   1.405       .  A
C1430      H1435   1.083       .  S
C1431      C1432   1.405       .  A
C1432      F1433   1.358       .  S
C1437      C1438   1.405       .  A
C1437      C1442   1.403       .  A
C1437      H1444   1.083       .  S
C1438      C1439   1.405       .  A
C1439      C1440   1.392       .  A
C1439      F1446   1.358       .  S
C1440      C1441   1.402       .  A
C1440      H1445   1.084       .  S
C1441      C1442   1.407       .  A
C1442      F1443   1.357       .  S
C1447      C1448   1.403       .  A
C1447      C1452   1.392       .  A
C1447      H1454   1.084       .  S
C1448      C1449   1.407       .  A
C1449      C1450   1.404       .  A
C1449      F1456   1.357       .  S
C1450      C1451   1.405       .  A
C1450      H1455   1.083       .  S
C1451      C1452   1.405       .  A
C1452      F1453   1.358       .  S
C1457      C1458   1.412       .  A
C1457      C1462   1.411       .  A
C1457      C1520   1.481       .  S
C1458      C1459   1.402       .  A
C1458      H1463   1.083       .  S
C1459      C1460   1.398       .  A
C1459      C1656   1.478       .  S
C1460      C1461   1.398       .  A
C1460      H1464   1.085       .  S
C1461      C1462   1.400       .  A
C1461      C1646   1.477       .  S
C1462      H1465   1.084       .  S
C1466      C1467   1.411       .  A
C1466      C1471   1.412       .  A
C1466      C1547   1.481       .  S
C1467      C1468   1.400       .  A
C1467      H1472   1.084       .  S
C1468      C1469   1.398       .  A
C1468      C1649   1.477       .  S
C1469      C1470   1.398       .  A
C1469      H1473   1.085       .  S
C1470      C1471   1.402       .  A
C1470      C1636   1.478       .  S
C1471      H1474   1.083       .  S
C1475      C1476   1.412       .  A
C1475      C1480   1.411       .  A
C1475      C1548   1.480       .  S
C1476      C1477   1.401       .  A
C1476      H1481   1.083       .  S
C1477      C1478   1.398       .  A
C1477      C1659   1.478       .  S
C1478      C1479   1.398       .  A
C1478      H1482   1.085       .  S
C1479      C1480   1.400       .  A
C1479      C1626   1.477       .  S
C1480      H1483   1.084       .  S
C1484      C1485   1.412       .  A
C1484      C1489   1.411       .  A
C1484      C1519   1.480       .  S
C1485      C1486   1.402       .  A
C1485      H1490   1.083       .  S
C1486      C1487   1.398       .  A
C1486      C1639   1.477       .  S
C1487      C1488   1.398       .  A
C1487      H1491   1.085       .  S
C1488      C1489   1.400       .  A
C1488      C1629   1.477       .  S
C1489      H1492   1.084       .  S
O1493      C1503   1.276       .  A
O1494      C1504   1.277       .  A
O1494     Cu1501   2.010       .  S
O1495      C1505   1.279       .  A
O1495     Cu1501   2.009       .  S
O1496      C1506   1.278       .  A
O1496     Cu1501   2.010       .  S
O1497      C1506   1.279       .  A
O1498      C1505   1.278       .  A
O1499      C1504   1.277       .  A
O1500      C1503   1.276       .  A
O1500     Cu1502   2.007       .  S
C1503      C1517   1.457       .  S
C1504      C1518   1.460       .  S
C1505      C1567   1.481   1_556  S
C1506      C1549   1.481       .  S
O1507      C1517   1.276       .  A
O1507     Cu1515   2.007       .  S
O1508      C1518   1.277       .  A
O1508     Cu1515   2.010       .  S
O1509      C1519   1.278       .  A
O1510      C1520   1.279       .  A
O1510     Cu1515   2.007       .  S
O1511      C1520   1.278       .  A
O1511     Cu1516   2.009       .  S
O1512      C1519   1.278       .  A
O1513      C1518   1.277       .  A
O1513     Cu1516   2.011       .  S
O1514      C1517   1.276       .  A
O1514     Cu1516   2.006       .  S
Cu1515    Cu1516   2.375       .  S
O1522     Cu1529   2.011       .  S
O1523     Cu1529   2.010       .  S
O1524     Cu1529   2.010       .  S
O1525     Cu1530   2.007       .  S
O1527      C1532   1.277       .  A
O1528      C1531   1.276       .  A
O1528     Cu1530   2.006       .  S
C1534      C1558   1.481       .  S
O1535      C1545   1.277       .  A
O1535     Cu1543   2.011       .  S
O1536      C1546   1.276   1_545  A
O1536     Cu1543   2.007       .  S
O1537      C1547   1.278       .  A
O1537     Cu1543   2.008   1_565  S
O1538      C1548   1.278       .  A
O1539      C1548   1.278       .  A
O1540      C1547   1.279       .  A
O1540     Cu1544   2.007       .  S
O1541      C1546   1.276       .  A
O1541     Cu1544   2.005       .  S
O1542      C1545   1.277   1_565  A
O1542     Cu1544   2.011       .  S
Cu1543    Cu1544   2.375   1_545  S
C1549      C1550   1.411   1_556  A
C1549      C1554   1.413       .  A
C1550      C1551   1.399       .  A
C1551      C1552   1.397   1_554  A
C1552      C1553   1.400       .  A
C1552      H1556   1.085   1_556  S
C1553      C1554   1.404       .  A
C1553      C1606   1.484       .  S
C1554      H1557   1.083       .  S
C1558      C1563   1.413       .  A
C1559      C1560   1.400   1_556  A
C1559      H1564   1.083   1_556  S
C1560      C1619   1.475       .  S
C1561      C1562   1.400       .  A
C1561      H1565   1.085       .  S
C1562      C1563   1.403       .  A
C1562      C1599   1.481       .  S
C1563      H1566   1.084       .  S
C1567      C1568   1.413   1_554  A
C1567      C1572   1.411       .  A
C1568      C1569   1.404       .  A
C1569      C1570   1.400   1_556  A
C1570      C1571   1.397       .  A
C1570      H1574   1.085       .  S
C1571      C1572   1.398       .  A
C1571      C1586   1.473       .  S
C1572      H1575   1.083       .  S
C1576      C1581   1.411       .  A
C1577      C1578   1.404   1_556  A
C1577      H1582   1.084       .  S
C1578      C1579   1.400   1_565  A
C1578      C1609   1.483   1_554  S
C1579      H1583   1.085       .  S
C1580      C1581   1.398       .  A
C1580      C1589   1.472       .  S
C1581      H1584   1.083       .  S
C1585      C1590   1.391       .  A
C1585      H1592   1.084       .  S
C1586      C1587   1.406       .  A
C1587      C1588   1.404       .  A
C1587      F1594   1.357       .  S
C1588      C1589   1.404       .  A
C1588      H1593   1.083       .  S
C1590      F1591   1.358       .  S
C1595      C1600   1.405       .  A
C1595      H1602   1.083       .  S
C1596      C1597   1.406       .  A
C1597      C1598   1.393       .  A
C1598      C1599   1.403       .  A
C1598      H1603   1.084       .  S
C1600      F1601   1.357       .  S
C1605      C1606   1.403       .  A
C1605      C1610   1.391       .  A
C1605      H1612   1.084       .  S
C1607      C1608   1.406       .  A
C1607      F1614   1.357       .  S
C1608      H1613   1.083       .  S
C1609      C1610   1.407       .  A
C1610      F1611   1.358       .  S
C1615      C1616   1.404   1_556  A
C1615      C1620   1.402       .  A
C1615      H1622   1.083       .  S
C1617      C1618   1.394       .  A
C1618      H1623   1.084       .  S
C1619      C1620   1.406   1_554  A
C1620      F1621   1.357       .  S
C1625      C1626   1.402       .  A
C1625      C1630   1.392       .  A
C1625      H1632   1.083       .  S
C1626      C1627   1.406       .  A
C1627      C1628   1.403       .  A
C1627      F1634   1.357       .  S
C1628      C1629   1.405       .  A
C1628      H1633   1.083       .  S
C1629      C1630   1.404       .  A
C1630      F1631   1.358       .  S
C1635      C1636   1.403       .  A
C1635      C1640   1.393       .  A
C1635      H1642   1.083       .  S
C1636      C1637   1.407       .  A
C1637      C1638   1.404       .  A
C1637      F1644   1.357       .  S
C1638      C1639   1.405       .  A
C1638      H1643   1.083       .  S
C1639      C1640   1.405       .  A
C1640      F1641   1.358       .  S
C1645      C1646   1.405       .  A
C1645      C1650   1.403       .  A
C1645      H1652   1.083       .  S
C1646      C1647   1.405       .  A
C1647      C1648   1.392       .  A
C1647      F1654   1.358       .  S
C1648      C1649   1.402       .  A
C1648      H1653   1.084       .  S
C1649      C1650   1.407       .  A
C1650      F1651   1.357       .  S
C1655      C1656   1.403       .  A
C1655      C1660   1.392       .  A
C1655      H1662   1.084       .  S
C1656      C1657   1.407       .  A
C1657      C1658   1.404       .  A
C1657      F1664   1.357       .  S
C1658      C1659   1.405       .  A
C1658      H1663   1.083       .  S
C1659      C1660   1.405       .  A
C1660      F1661   1.358       .  S
