geometry optimzed in LAMMPS
_audit_creation_date              2020-12-01 
_audit_creation_method            'lammps2cif' 
_symmetry_space_group_name_H-M    'P1' 
_symmetry_Int_Tables_number       1 
_symmetry_cell_setting            triclinic 
loop_ 
_symmetry_equiv_pos_as_xyz 
  x,y,z 
_cell_length_a                    32.88055311 
_cell_length_b                    31.33698180953042 
_cell_length_c                    32.090132146740046 
_cell_angle_alpha                 93.52913892995711 
_cell_angle_beta                  88.13733262100571 
_cell_angle_gamma                 90.6477353089141 
loop_ 
_atom_site_label 
_atom_site_type_symbol 
_atom_site_fract_x 
_atom_site_fract_y 
_atom_site_fract_z 
_atom_site_charge 
C1          C  0.34331646  0.40744727  0.34815954     0.85500
C2          C  0.31928085  0.37273196  0.37080291    -0.54700
C3          C  0.34167332  0.34394682  0.39081835     0.08500
C4          C  0.38878634  0.35616238  0.38855451     0.19400
C5          C  0.36824189  0.43033140  0.38169586    -0.55400
C6          C  0.39148072  0.40574361  0.40494132     0.08600
C7          C  0.37462138  0.38221209  0.32005439    -0.55000
C8          C  0.39892825  0.35482072  0.33964298     0.09100
H9          H  0.28647122  0.37203515  0.37229281     0.13700
H10         H  0.40804733  0.33476460  0.40571319    -0.00600
H11         H  0.36973424  0.46465019  0.38409531     0.14000
H12         H  0.37636370  0.38469774  0.28645741     0.13700
C13         C  0.15523212  0.09990097  0.14908813     0.85500
C14         C  0.13253972  0.13754059  0.17259244    -0.54700
C15         C  0.10752279  0.16031853  0.14892364     0.08500
C16         C  0.10946107  0.14327424  0.10119793     0.19400
C17         C  0.12066281  0.07298430  0.12730491    -0.55400
C18         C  0.09623126  0.09457723  0.10149885     0.08600
C19         C  0.17869022  0.11940232  0.11274754    -0.55000
C20         C  0.15639339  0.14283153  0.08734127     0.09100
H21         H  0.13420631  0.14385360  0.20615514     0.13700
H22         H  0.09052279  0.16199443  0.08103311    -0.00600
H23         H  0.11702305  0.03888803  0.13073546     0.14000
H24         H  0.21119636  0.11528441  0.10776325     0.13700
O25         O  0.03784354  0.44298094  0.43319098    -0.81100
O26         O  0.46685524  0.44057919  0.05211669    -0.81100
O27         O  0.08345539  0.49604537  0.51822090    -0.81100
O28         O  0.40614482  0.46363543  0.45927865    -0.81100
O29         O  0.04117598  0.45159917  0.04395094    -0.81200
O30         O  0.45688805  0.42386207  0.43415951    -0.81100
O31         O  0.40918683  0.47248374  0.04475929    -0.81100
O32         O  0.07790630  0.49726613  0.45290397    -0.81100
C33         C  0.07265010  0.46034234  0.43403123     1.08600
C34         C  0.42891208  0.44117914  0.05544036     1.08500
C35         C  0.07639514  0.46113890  0.03365000     1.08600
C36         C  0.41914539  0.43014830  0.43658359     1.08500
O37         O  0.44462933  0.01129454  0.41801752    -0.81100
O38         O  0.04439507  0.03755907  0.08579657    -0.81200
O39         O  0.03193005  0.06665925  0.44967581    -0.81100
O40         O  0.43471335  0.56017559  0.04490266    -0.81100
O41         O  0.45793242  0.52342624  0.09425436    -0.81100
O42         O  0.51761223  0.01249641  0.40542249    -0.81100
O43         O  0.44031915  0.05887747  0.46652677    -0.81100
O44         O  0.06151680  0.07994577  0.03560346    -0.81100
Co45       Co  0.48746191  0.97510854  0.44570990     1.51500
Co46       Co  0.00115785  0.49002270  0.06478163     1.51700
Co47       Co  0.04268575  0.03249067  0.49538837     1.51600
Co48       Co  0.42840013  0.51288782  0.00289809     1.51500
O49         O  0.48709891  0.50120623  0.50516429    -1.43000
C50         C  0.43188083  0.04724064  0.43077594     1.08500
C51         C  0.06461850  0.07056718  0.07333753     1.08600
C52         C  0.02743617  0.05098753  0.41268419     1.08600
C53         C  0.43379298  0.05118781  0.08199434     1.08500
O54         O  0.30986788  0.27224778  0.40462425    -0.81100
O55         O  0.25445623  0.20494564  0.08018524    -0.81100
O56         O  0.30480029  0.30258871  0.02347154    -0.81100
O57         O  0.26859268  0.13222515  0.46616045    -0.81100
O58         O  0.26248838  0.29142210  0.07620770    -0.81200
O59         O  0.29554450  0.18628316  0.43142545    -0.81100
O60         O  0.29314765  0.19118206  0.02461376    -0.81100
O61         O  0.30105340  0.32600138  0.45088454    -0.81100
C62         C  0.31836384  0.31132538  0.41688788     1.08600
C63         C  0.28804926  0.19273024  0.06372463     1.08500
C64         C  0.29528180  0.30743852  0.06164875     1.08600
C65         C  0.29409363  0.14602381  0.43930742     1.08500
O66         O  0.22630060  0.21727427  0.40732068    -0.81100
O67         O  0.18273762  0.29554298  0.04552924    -0.81200
O68         O  0.22137521  0.32167038  0.44631213    -0.81100
O69         O  0.21086931  0.15411535  0.03411045    -0.81100
O70         O  0.17173204  0.20833228  0.05362126    -0.81100
O71         O  0.22829016  0.26197643  0.40770751    -0.81100
O72         O  0.19987240  0.17415845  0.45335403    -0.81100
O73         O  0.22968782  0.34079166  0.52593800    -0.81100
Co74       Co  0.27057300  0.24634054  0.44692494     1.51500
Co75       Co  0.21866788  0.24951585  0.05952449     1.51700
Co76       Co  0.25758467  0.29972469  0.48857214     1.51600
Co77       Co  0.24636963  0.18351448  0.98876106     1.51500
O78         O  0.23219366  0.24116317  0.49715933    -1.43000
C79         C  0.20030175  0.18720621  0.41705801     1.08500
C80         C  0.19408598  0.33315165  0.03763308     1.08600
C81         C  0.21229519  0.29885562  0.41404631     1.08600
C82         C  0.17918753  0.16890845  0.05485076     1.08500
O83         O  0.04301445  0.29303677  0.31318252    -0.81100
O84         O  0.46715246  0.28886675  0.14741660    -0.81100
O85         O  0.05333843  0.30340850  0.22935360    -0.81100
O86         O  0.41296991  0.31068796  0.27633537    -0.81100
O87         O  0.04858283  0.28636454  0.16195756    -0.81200
O88         O  0.45909088  0.30903794  0.32356345    -0.81100
O89         O  0.43283172  0.31919887  0.20075938    -0.81100
O90         O  0.09308321  0.25576776  0.28103913    -0.81100
C91         C  0.08103703  0.28327495  0.30944474     1.08600
C92         C  0.44281467  0.31718012  0.16277522     1.08500
C93         C  0.05806198  0.31269294  0.19203468     1.08600
C94         C  0.42527019  0.32311727  0.31235473     1.08500
O95         O  0.44820834  0.22298228  0.31216449    -0.81100
O96         O  0.04064630  0.19181310  0.15933810    -0.81200
O97         O  0.04268721  0.18637367  0.26437896    -0.81100
O98         O  0.40824554  0.23876756  0.18734369    -0.81100
O99         O  0.45866419  0.19971990  0.15730838    -0.81100
O100        O  0.51540581  0.21672805  0.32120369    -0.81100
O101        O  0.40526694  0.22876051  0.26127188    -0.81100
O102        O  0.08701804  0.21976114  0.19954293    -0.81100
Co103      Co  0.49197449  0.26208850  0.29123709     1.51500
Co104      Co  0.00322165  0.24219339  0.16215686     1.51700
Co105      Co  0.04794858  0.24526471  0.24618199     1.51600
Co106      Co  0.43803522  0.26940664  0.23198767     1.51500
O107        O  0.49373422  0.24584470  0.22668560    -1.43000
C108        C  0.41524323  0.21262699  0.29433082     1.08500
C109        C  0.07726746  0.19285559  0.16982635     1.08600
C110        C  0.03245361  0.18469644  0.30237899     1.08600
C111        C  0.42113188  0.20793276  0.16302328     1.08500
O112        O  0.29242777  0.46441928  0.34549958    -0.81100
O113        O  0.26692038  0.02810553  0.17524151    -0.81100
O114        O  0.29379818  0.44566688  0.20837714    -0.81100
O115        O  0.25877302  0.09631065  0.28708444    -0.81100
O116        O  0.24086419  0.45814076  0.17166667    -0.81200
O117        O  0.29649339  0.05171411  0.32132425    -0.81100
O118        O  0.28893608  0.06727943  0.22396071    -0.81100
O119        O  0.31558850  0.43550578  0.28618108    -0.81100
C120        C  0.31623885  0.43812966  0.32534303     1.08600
C121        C  0.29456365  0.05176620  0.18853100     1.08500
C122        C  0.27582569  0.44118839  0.17463994     1.08600
C123        C  0.29063259  0.08839859  0.30762388     1.08500
O124        O  0.21175742  0.05785237  0.33169770    -0.81100
O125        O  0.17432862  0.47493774  0.23483830    -0.81200
O126        O  0.23185404  0.41384972  0.31044899    -0.81100
O127        O  0.20593827  0.09363916  0.20595245    -0.81100
O128        O  0.18554180  0.03376934  0.17127173    -0.81100
O129        O  0.20695536  0.47478072  0.33715946    -0.81100
O130        O  0.17990783  0.05007346  0.27319916    -0.81100
O131        O  0.21134579  0.41710431  0.22936558    -0.81100
Co132      Co  0.25135985  0.01132021  0.32908474     1.51500
Co133      Co  0.22128819  0.50690138  0.21224975     1.51700
Co134      Co  0.26284090  0.43242792  0.25865354     1.51600
Co135      Co  0.23393725  0.05357417  0.24462885     1.51500
O136        O  0.25445936  0.49719694  0.26589129    -1.43000
C137        C  0.18077411  0.06380978  0.31079665     1.08500
C138        C  0.17735497  0.43516975  0.22658411     1.08600
C139        C  0.20703195  0.43497742  0.33467317     1.08600
C140        C  0.18361632  0.07482450  0.17689842     1.08500
C141        C  0.34805512  0.19374324  0.32111838    -0.21300
C142        C  0.38759582  0.18040832  0.31015064    -0.07800
C143        C  0.39548741  0.13655387  0.30165730     0.13000
C144        C  0.36353367  0.10707365  0.30514174    -0.21300
C145        C  0.32333083  0.12069050  0.31218031    -0.07800
C146        C  0.31564632  0.16446606  0.32074572     0.13000
C147        C  0.27345049  0.18054072  0.32870647    -0.24700
H148        H  0.34202611  0.22767957  0.32607436     0.14300
H149        H  0.36967490  0.07332955  0.29986337     0.14400
C150        C  0.43587376  0.12056325  0.28408646    -0.24600
H151        H  0.27379442  0.21498280  0.33891632     0.04600
H152        H  0.25842116  0.16236441  0.35352580     0.07800
H153        H  0.25604589  0.17637549  0.29966962     0.07800
H154        H  0.46009085  0.14504667  0.28738083     0.07800
H155        H  0.43344436  0.11175077  0.25026748     0.07800
H156        H  0.44518915  0.09217058  0.30034500     0.04500
C157        C  0.11821421  0.34863707  0.16561896    -0.21300
C158        C  0.08022483  0.35260125  0.18567446    -0.07800
C159        C  0.07157067  0.38930873  0.21226379     0.13000
C160        C  0.10334958  0.41734085  0.22398178    -0.21300
C161        C  0.14321474  0.40958161  0.20880709    -0.07800
C162        C  0.15005931  0.37633827  0.17707154     0.13000
C163        C  0.19073022  0.36897193  0.15516775    -0.24700
H164        H  0.12434127  0.32083648  0.14460002     0.14300
H165        H  0.09730751  0.44383906  0.24660176     0.14400
C166        C  0.02913854  0.39827977  0.22953415    -0.24600
H167        H  0.18929265  0.34373075  0.12940676     0.04600
H168        H  0.21344372  0.35858840  0.17710025     0.07800
H169        H  0.20055034  0.39882605  0.14130810     0.07800
H170        H  0.02810205  0.39746799  0.26396688     0.07800
H171        H  0.00661323  0.37472547  0.21674452     0.07800
H172        H  0.01973585  0.43044501  0.22102696     0.04500
C173        C  0.31430697  0.38261393  0.07431663    -0.21300
C174        C  0.31468536  0.34084152  0.08827846    -0.07800
C175        C  0.31374394  0.33547234  0.13139096     0.13000
C176        C  0.30136809  0.36940540  0.15859654    -0.21300
C177        C  0.29301307  0.40948560  0.14376219    -0.07800
C178        C  0.30433531  0.41763082  0.10221267     0.13000
C179        C  0.30645959  0.46215822  0.08694417    -0.24700
H180        H  0.31725851  0.38741406  0.04117954     0.14300
H181        H  0.29660265  0.36394222  0.19147022     0.14400
C182        C  0.32179585  0.29298418  0.14863821    -0.24600
H183        H  0.29039116  0.46396125  0.05736694     0.04600
H184        H  0.33863302  0.47104846  0.08072761     0.07800
H185        H  0.29337434  0.48621760  0.11001170     0.07800
H186        H  0.33212897  0.26918178  0.12363733     0.08600
H187        H  0.29374910  0.28089575  0.16429318     0.07800
H188        H  0.34619203  0.29673739  0.17172313     0.04500
C189        C  0.15485067  0.12475875  0.40095318    -0.21300
C190        C  0.17293260  0.16267318  0.38704968    -0.07800
C191        C  0.16919606  0.17007405  0.34432974     0.13000
C192        C  0.15773690  0.13631122  0.31600178    -0.21300
C193        C  0.15211404  0.09514609  0.32982139    -0.07800
C194        C  0.14397240  0.09120762  0.37265732     0.13000
C195        C  0.13387930  0.04847735  0.38923066    -0.24700
H196        H  0.15333177  0.11879312  0.43387744     0.14300
H197        H  0.16039667  0.14048287  0.28273348     0.14400
C198        C  0.17472789  0.21334034  0.32897295    -0.24600
H199        H  0.10943715  0.05277200  0.41338061     0.04600
H200        H  0.16093834  0.03556020  0.40381936     0.07800
H201        H  0.12348528  0.02521224  0.36416578     0.07800
H202        H  0.20589055  0.22497723  0.33335698     0.07800
H203        H  0.15339114  0.23394271  0.34775894     0.07800
H204        H  0.16777501  0.21448821  0.29541791     0.04500
C205        C  0.14071339  0.31444975  0.40544735    -0.21300
C206        C  0.17989386  0.31174247  0.38726356    -0.07800
C207        C  0.18523246  0.31199952  0.34350513     0.13000
C208        C  0.15080402  0.30951649  0.31884547    -0.21300
C209        C  0.11167352  0.30393111  0.33690434    -0.07800
C210        C  0.10623312  0.30968044  0.38101873     0.13000
C211        C  0.06581987  0.30816720  0.40449669    -0.24700
H212        H  0.13695589  0.31547033  0.43920517     0.14300
H213        H  0.15487283  0.30711037  0.28511040     0.14400
C214        C  0.22684131  0.31185179  0.32248033    -0.24600
H215        H  0.06610945  0.28256541  0.42688623     0.04600
H216        H  0.03928198  0.30267632  0.38477721     0.07800
H217        H  0.06119798  0.33904063  0.42268904     0.07800
H218        H  0.24518967  0.28474953  0.33154220     0.07800
H219        H  0.24284284  0.34161219  0.33181663     0.07800
H220        H  0.22518659  0.30990807  0.28789680     0.04500
C221        C  0.36099759  0.17951691  0.07077667    -0.21300
C222        C  0.32199580  0.18214095  0.08998327    -0.07800
C223        C  0.31767206  0.17887210  0.13385841     0.13000
C224        C  0.35261884  0.17925472  0.15731230    -0.21300
C225        C  0.39103716  0.18434641  0.13828844    -0.07800
C226        C  0.39578695  0.18007040  0.09447447     0.13000
C227        C  0.43704014  0.17975865  0.07249016    -0.24700
H228        H  0.36462220  0.18002806  0.03711865     0.14300
H229        H  0.34976293  0.18076671  0.19115697     0.14400
C230        C  0.27711131  0.17720426  0.15702527    -0.24600
H231        H  0.43463661  0.17494090  0.03806303     0.04600
H232        H  0.45531499  0.15313701  0.08313177     0.07800
H233        H  0.45311003  0.21063633  0.07918867     0.07800
H234        H  0.25910220  0.14988872  0.14402288     0.07800
H235        H  0.26042303  0.20751522  0.15504455     0.07800
H236        H  0.28054665  0.17245576  0.19075975     0.04500
C237        C  0.35948388  0.04857251  0.41879161    -0.21300
C238        C  0.39759813  0.06814121  0.41268620    -0.07800
C239        C  0.39961618  0.11198897  0.40579767     0.13000
C240        C  0.36387051  0.13605805  0.40946285    -0.21300
C241        C  0.32632241  0.11730367  0.42094693    -0.07800
C242        C  0.32364124  0.07230994  0.42221146     0.13000
C243        C  0.28394909  0.04902656  0.43007798    -0.24700
H244        H  0.35804146  0.01592923  0.42771044     0.14300
H245        H  0.36621749  0.17038005  0.40743927     0.14400
C246        C  0.43992827  0.13400976  0.39844443    -0.24600
H247        H  0.28750736  0.01388188  0.42477043     0.04600
H248        H  0.26078253  0.05919698  0.40839621     0.07800
H249        H  0.27298252  0.05518094  0.46291147     0.07800
H250        H  0.45585618  0.11833503  0.37079622     0.07800
H251        H  0.46028980  0.13137651  0.92483272     0.07800
H252        H  0.43616533  0.16830097  0.39266465     0.04500
C253        C  0.14528854  0.44046864  0.04389434    -0.21300
C254        C  0.10577330  0.42796822  0.03489558    -0.07800
C255        C  0.09470155  0.38402183  0.02889137     0.13000
C256        C  0.12470718  0.35401834  0.03087593    -0.21300
C257        C  0.16453351  0.36657749  0.03896019    -0.07800
C258        C  0.17523959  0.41018418  0.04523261     0.13000
C259        C  0.21765585  0.42542683  0.05357652    -0.24700
H260        H  0.15282093  0.47413655  0.04915771     0.14300
H261        H  0.11725629  0.31934258  0.52237640     0.14400
C262        C  0.05281079  0.36664751  0.51254089    -0.24600
H263        H  0.21874995  0.46016809  0.06278307     0.04600
H264        H  0.23829066  0.41752088  0.52236697     0.07800
H265        H  0.22947728  0.40802739  0.07933854     0.07800
H266        H  0.04192405  0.38276546  0.48528627     0.07800
H267        H  0.03136031  0.37522849  0.04792850     0.07800
H268        H  0.05234705  0.33169117  0.50430296     0.04500
C269        C  0.14556275  0.44172944  0.42894101    -0.21300
C270        C  0.10717626  0.43841162  0.41152592    -0.07800
C271        C  0.09933718  0.91783228  0.37613730     0.13000
C272        C  0.13399150  0.90998757  0.34970839    -0.21300
C273        C  0.17744161  0.41600263  0.36307699    -0.07800
C274        C  0.18047664  0.42890035  0.40582461     0.13000
C275        C  0.22091095  0.43508987  0.42604381    -0.24700
H276        H  0.14881584  0.45718811  0.45965994     0.14300
H277        H  0.13015154  0.90235339  0.31664580     0.14400
C278        C  0.05781698  0.91157708  0.35841646    -0.24600
H279        H  0.22198330  0.41443894  0.45275983     0.04600
H280        H  0.22479412  0.46902160  0.43741850     0.07800
H281        H  0.24663825  0.42622642  0.40428479     0.07800
H282        H  0.04270619  0.94278297  0.35750138     0.07800
H283        H  0.03882625  0.89068135  0.37789977     0.07800
H284        H  0.05973809  0.89633428  0.32634773     0.04500
C285        C  0.40407178  0.05822702  0.15265102    -0.21300
C286        C  0.39974716  0.06496180  0.11022446    -0.07800
C287        C  0.36038894  0.07223056  0.09509070     0.13000
C288        C  0.32689571  0.07185332  0.12299767    -0.21300
C289        C  0.33126159  0.06012050  0.16389079    -0.07800
C290        C  0.37014391  0.05215858  0.17870511     0.13000
C291        C  0.37703048  0.03125229  0.21891613    -0.24700
H292        H  0.43387335  0.05157642  0.16416343     0.14300
H293        H  0.29660649  0.07687898  0.11190271     0.14400
C294        C  0.35238268  0.57487653  0.04948926    -0.24600
H295        H  0.39834844  0.05080453  0.23797515     0.04600
H296        H  0.39160530  0.99989100  0.21159542     0.07800
H297        H  0.34893770  0.02551029  0.23772967     0.07800
H298        H  0.35956414  0.54395183  0.03225036     0.07800
H299        H  0.37079492  0.10063597  0.03567521     0.07800
H300        H  0.31995388  0.58185490  0.04423627     0.04500
C301        C  0.40037753  0.41614126  0.11936387    -0.21300
C302        C  0.40993977  0.40677109  0.07704801    -0.07800
C303        C  0.41915840  0.36473763  0.06244499     0.13000
C304        C  0.42682155  0.33486377  0.09150088    -0.21300
C305        C  0.42494886  0.34654064  0.13454812    -0.07800
C306        C  0.40735762  0.38609561  0.14866583     0.13000
C307        C  0.89839380  0.39885726  0.19480808    -0.24700
H308        H  0.89207626  0.44950467  0.13090822     0.14300
H309        H  0.43687615  0.30322694  0.08041077     0.14400
C310        C  0.42447940  0.35283557  0.01632581    -0.24600
H311        H  0.88298907  0.43010218  0.19939832     0.04600
H312        H  0.92711734  0.40081918  0.21209821     0.07800
H313        H  0.87747579  0.37484375  0.20814765     0.07800
H314        H  0.44975326  0.37158607  0.00242186     0.07800
H315        H  0.39592065  0.35947970  0.00044288     0.07800
H316        H  0.43151135  0.31838440  0.01027822     0.04500
C317        C  0.05087073  0.12084728  0.39301713    -0.21300
C318        C  0.03603958  0.08028932  0.37907728    -0.07800
C319        C  0.52970319  0.07298049  0.33737747     0.13000
C320        C  0.53289461  0.10691752  0.31078632    -0.21300
C321        C  0.04063911  0.14793904  0.32614421    -0.07800
C322        C  0.05249867  0.15467268  0.36766450     0.13000
C323        C  0.06534290  0.19786500  0.38649240    -0.24700
H324        H  0.05954692  0.12745713  0.42506527     0.14300
H325        H  0.52594605  0.10158442  0.27808241     0.14400
C326        C  0.51853203  0.02913945  0.31934742    -0.24600
H327        H  0.07960895  0.19564680  0.41718379     0.04600
H328        H  0.03839838  0.21866354  0.39178030     0.07800
H329        H  0.08787612  0.21276275  0.36542048     0.07800
H330        H  0.48930696  0.01830025  0.33363195     0.07800
H331        H  0.54318331  0.00659421  0.32510216     0.07800
H332        H  0.51480182  0.02874425  0.28504933     0.04500
C333        C  0.34186364  0.40751504  0.84678865     0.85500
C334        C  0.31853012  0.37340191  0.87069664    -0.54700
C335        C  0.34154901  0.34456362  0.88982980     0.08500
C336        C  0.38878988  0.35627314  0.88550010     0.19400
C337        C  0.36830654  0.43066976  0.87884589    -0.55400
C338        C  0.39292499  0.40593296  0.90046751     0.08600
C339        C  0.37204961  0.38148186  0.81762498    -0.55000
C340        C  0.39713958  0.35434945  0.83667595     0.09100
H341        H  0.28572377  0.37284496  0.87333059     0.13700
H342        H  0.40866510  0.33497569  0.90207554    -0.00600
H343        H  0.37020395  0.46508321  0.88096802     0.14000
H344        H  0.37275290  0.38358493  0.78400808     0.13700
C345        C  0.15472363  0.09910107  0.64920073     0.85500
C346        C  0.13215742  0.13673862  0.67278169    -0.54700
C347        C  0.10722619  0.15961533  0.64916257     0.08500
C348        C  0.10894814  0.14261388  0.60143948     0.19400
C349        C  0.12007760  0.07225749  0.62740366    -0.55400
C350        C  0.09563932  0.09392695  0.60163326     0.08600
C351        C  0.17815468  0.11865253  0.61284930    -0.55000
C352        C  0.15581079  0.14215477  0.58752631     0.09100
H353        H  0.13388190  0.14302872  0.70634488     0.13700
H354        H  0.09000679  0.16143071  0.58136212    -0.00600
H355        H  0.11641720  0.03815532  0.63078139     0.14000
H356        H  0.21066299  0.11458395  0.60784859     0.13700
O357        O  0.03730815  0.44052547  0.95081859    -0.81100
O358        O  0.46356604  0.43955302  0.55306184    -0.81100
O359        O  0.08520758  0.49771134  0.02097785    -0.81100
O360        O  0.41381309  0.45853631  0.95749256    -0.81100
O361        O  0.04080375  0.44888353  0.54213609    -0.81200
O362        O  0.46177115  0.43055312  0.91181958    -0.81100
O363        O  0.40639878  0.47369601  0.54645483    -0.81100
O364        O  0.07764035  0.49758775  0.95374700    -0.81100
C365        C  0.07135157  0.45840985  0.94189720     1.08600
C366        C  0.42554280  0.44132798  0.55634167     1.08500
C367        C  0.07546039  0.45906269  0.53008696     1.08600
C368        C  0.42495904  0.43036775  0.92636287     1.08500
O369        O  0.44471723  0.01093024  0.91786873    -0.81100
O370        O  0.04381960  0.03688879  0.58571670    -0.81200
O371        O  0.03300059  0.06714463  0.95012853    -0.81100
O372        O  0.43664355  0.56038459  0.54483860    -0.81100
O373        O  0.45721805  0.52227523  0.59448944    -0.81100
O374        O  0.51688002  0.01191018  0.90553774    -0.81100
O375        O  0.44033341  0.05875202  0.96613962    -0.81100
O376        O  0.06066334  0.07961261  0.53572676    -0.81100
Co377      Co  0.48717909  0.97446081  0.94594875     1.51500
Co378      Co  0.00083026  0.48688521  0.56429440     1.51700
Co379      Co  0.04346349  0.03276519  0.99547331     1.51600
Co380      Co  0.42611041  0.51334605  0.50338843     1.51500
O381        O  0.49017921  0.50571701  0.00459947    -1.43000
C382        C  0.43212243  0.04702887  0.93034715     1.08500
C383        C  0.06394690  0.07002095  0.57339684     1.08600
C384        C  0.02764146  0.05161667  0.91328243     1.08600
C385        C  0.43347717  0.05133516  0.58238257     1.08500
O386        O  0.31023944  0.27266935  0.90387145    -0.81100
O387        O  0.25378587  0.20426094  0.58036678    -0.81100
O388        O  0.30444010  0.30082956  0.52408819    -0.81100
O389        O  0.26975197  0.13265216  0.96604982    -0.81100
O390        O  0.26172308  0.29060879  0.57671877    -0.81200
O391        O  0.29622107  0.18666444  0.93085661    -0.81100
O392        O  0.29220682  0.19078520  0.52452006    -0.81100
O393        O  0.30126363  0.32648172  0.95003290    -0.81100
C394        C  0.31865848  0.31178240  0.91608265     1.08600
C395        C  0.28736855  0.19232478  0.56363226     1.08500
C396        C  0.29469872  0.30616567  0.56218494     1.08600
C397        C  0.29500816  0.14644097  0.93894393     1.08500
O398        O  0.22645325  0.21784916  0.90704915    -0.81100
O399        O  0.18215047  0.29522320  0.54593072    -0.81200
O400        O  0.22141223  0.32212750  0.94591488    -0.81100
O401        O  0.21009118  0.15366841  0.53426750    -0.81100
O402        O  0.17094781  0.20780547  0.55399777    -0.81100
O403        O  0.22851257  0.26244538  0.90731091    -0.81100
O404        O  0.20084301  0.17420186  0.95302635    -0.81100
O405        O  0.22968642  0.34155620  0.02506567    -0.81100
Co406      Co  0.27110193  0.24673487  0.94632052     1.51500
Co407      Co  0.21791150  0.24893134  0.55995681     1.51700
Co408      Co  0.25790351  0.30037278  0.98797841     1.51600
Co409      Co  0.24540057  0.18317106  0.48892584     1.51500
O410        O  0.23300804  0.24157586  0.99677887    -1.43000
C411        C  0.20058747  0.18770799  0.91691865     1.08500
C412        C  0.19377103  0.33264875  0.53753658     1.08600
C413        C  0.21230997  0.29924406  0.91371073     1.08600
C414        C  0.17846139  0.16837771  0.55510760     1.08500
O415        O  0.04249062  0.29335357  0.81310430    -0.81100
O416        O  0.46655683  0.28847627  0.64634396    -0.81100
O417        O  0.05306197  0.30304762  0.72888388    -0.81100
O418        O  0.41156435  0.30979829  0.77406347    -0.81100
O419        O  0.04849046  0.28561199  0.66152987    -0.81200
O420        O  0.45781185  0.30948137  0.82134464    -0.81100
O421        O  0.43372067  0.31925634  0.70034400    -0.81100
O422        O  0.09275285  0.25614487  0.78119691    -0.81100
C423        C  0.08057240  0.28373788  0.80950137     1.08600
C424        C  0.44278510  0.31713290  0.66216708     1.08500
C425        C  0.05760590  0.31221187  0.69151585     1.08600
C426        C  0.42383440  0.32294787  0.80979373     1.08500
O427        O  0.44730709  0.22336394  0.81173060    -0.81100
O428        O  0.04057958  0.19107577  0.65954561    -0.81200
O429        O  0.04257248  0.18642096  0.76461627    -0.81100
O430        O  0.40809322  0.23854961  0.68567414    -0.81100
O431        O  0.45862702  0.19922292  0.65638568    -0.81100
O432        O  0.51422658  0.21649317  0.82069976    -0.81100
O433        O  0.40499980  0.22794642  0.76008563    -0.81100
O434        O  0.08694132  0.21929047  0.69962844    -0.81100
Co435      Co  0.49122574  0.26206583  0.79044639     1.51500
Co436      Co  0.00327583  0.24132301  0.66175693     1.51700
Co437      Co  0.04779311  0.24510136  0.74606901     1.51600
Co438      Co  0.43762225  0.26865418  0.73062946     1.51500
O439        O  0.49332773  0.24537138  0.72595973    -1.43000
C440        C  0.41463398  0.21248241  0.79359480     1.08500
C441        C  0.07715526  0.19222820  0.67003815     1.08600
C442        C  0.03182415  0.18494684  0.80248578     1.08600
C443        C  0.42109238  0.20752712  0.66173796     1.08500
O444        O  0.29050809  0.46438924  0.84514915    -0.81100
O445        O  0.26662039  0.02752330  0.67535400    -0.81100
O446        O  0.29181419  0.44436659  0.70891636    -0.81100
O447        O  0.25838360  0.09573078  0.78734835    -0.81100
O448        O  0.23974639  0.45709345  0.67123602    -0.81200
O449        O  0.29639478  0.05118008  0.82134177    -0.81100
O450        O  0.28829933  0.06689608  0.72410178    -0.81100
O451        O  0.31275403  0.43499749  0.78580042    -0.81100
C452        C  0.31405326  0.43796415  0.82477546     1.08600
C453        C  0.29410348  0.05135381  0.68870279     1.08500
C454        C  0.27447764  0.43993167  0.67490100     1.08600
C455        C  0.29035382  0.08789234  0.80774561     1.08500
O456        O  0.21174588  0.05710430  0.83230493    -0.81100
O457        O  0.17277186  0.47550679  0.73356763    -0.81200
O458        O  0.22808244  0.41435488  0.81090146    -0.81100
O459        O  0.20518126  0.09288288  0.70629448    -0.81100
O460        O  0.18522746  0.03301968  0.67127233    -0.81100
O461        O  0.20453360  0.47577417  0.83776004    -0.81100
O462        O  0.17952265  0.04940515  0.77403879    -0.81100
O463        O  0.20885850  0.41706978  0.72918916    -0.81100
Co464      Co  0.25137975  0.01059611  0.82915583     1.51500
Co465      Co  0.22035191  0.50646274  0.71103129     1.51700
Co466      Co  0.26003408  0.43205793  0.75883600     1.51600
Co467      Co  0.23339718  0.05298363  0.74499802     1.51500
O468        O  0.25270841  0.49690919  0.76525322    -1.43000
C469        C  0.18066319  0.06320968  0.81164372     1.08500
C470        C  0.17531429  0.43567357  0.72564165     1.08600
C471        C  0.20351645  0.43595091  0.83521391     1.08600
C472        C  0.18309772  0.07404562  0.67704254     1.08500
C473        C  0.34756521  0.19348332  0.82078175    -0.21300
C474        C  0.38705934  0.18025368  0.80952043    -0.07800
C475        C  0.39496047  0.13644128  0.80086741     0.13000
C476        C  0.36317010  0.10683940  0.80477690    -0.21300
C477        C  0.32298084  0.12031118  0.81214888    -0.07800
C478        C  0.31523100  0.16409245  0.82067539     0.13000
C479        C  0.27304053  0.18006623  0.82884114    -0.24700
H480        H  0.34148397  0.22740459  0.82576014     0.14300
H481        H  0.36938951  0.07311703  0.79951275     0.14400
C482        C  0.43516986  0.12061064  0.78276909    -0.24600
H483        H  0.27336750  0.21455496  0.83888560     0.04600
H484        H  0.25822244  0.16194837  0.85382452     0.07800
H485        H  0.25547163  0.17572832  0.79992789     0.07800
H486        H  0.45931629  0.14525058  0.78538740     0.07800
H487        H  0.43224910  0.11138186  0.74908863     0.07800
H488        H  0.44482817  0.09255096  0.79922979     0.04500
C489        C  0.11673529  0.34934079  0.66429179    -0.21300
C490        C  0.07900976  0.35249959  0.68499799    -0.07800
C491        C  0.07009792  0.38896468  0.71185608     0.13000
C492        C  0.10155050  0.41749340  0.72324441    -0.21300
C493        C  0.14127141  0.41045625  0.70746104    -0.07800
C494        C  0.14823161  0.37763366  0.67535251     0.13000
C495        C  0.18862974  0.37146322  0.65256685    -0.24700
H496        H  0.12303188  0.32177354  0.64302284     0.14300
H497        H  0.09546685  0.44365464  0.74623761     0.14400
C498        C  0.02788931  0.39696805  0.73013984    -0.24600
H499        H  0.18733706  0.34600664  0.62701910     0.04600
H500        H  0.21225757  0.36195080  0.67390009     0.07800
H501        H  0.19710720  0.40152142  0.63828448     0.07800
H502        H  0.02779239  0.39572747  0.76453595     0.07800
H503        H  0.00548760  0.37313603  0.71762358     0.07800
H504        H  0.01769798  0.42906462  0.72224176     0.04500
C505        C  0.31155802  0.38173370  0.57436362    -0.21300
C506        C  0.31359787  0.34008188  0.58843070    -0.07800
C507        C  0.31364406  0.33475470  0.63155902     0.13000
C508        C  0.30147285  0.36857203  0.65900659    -0.21300
C509        C  0.29227222  0.40845096  0.64428853    -0.07800
C510        C  0.30211024  0.41663878  0.60258272     0.13000
C511        C  0.30303369  0.46155224  0.58838617    -0.24700
H512        H  0.31341613  0.38639100  0.54115971     0.14300
H513        H  0.29738035  0.36311737  0.69194954     0.14400
C514        C  0.32238789  0.29237140  0.64869005    -0.24600
H515        H  0.30980183  0.46209223  0.55428483     0.04600
H516        H  0.32716802  0.48005109  0.60497565     0.07800
H517        H  0.27361054  0.47759922  0.59577948     0.07800
H518        H  0.33261794  0.26864807  0.62357818     0.08600
H519        H  0.29467846  0.28000447  0.66474956     0.07800
H520        H  0.34707020  0.29641181  0.67142065     0.04500
C521        C  0.15338964  0.12640035  0.90145325    -0.21300
C522        C  0.17244966  0.16370012  0.88720315    -0.07800
C523        C  0.16947123  0.17040353  0.84425599     0.13000
C524        C  0.15863901  0.13614181  0.81623255    -0.21300
C525        C  0.15266431  0.09524623  0.83063855    -0.07800
C526        C  0.14365567  0.09197998  0.87348323     0.13000
C527        C  0.13241962  0.04944043  0.89024155    -0.24700
H528        H  0.15093979  0.12149978  0.93456603     0.14300
H529        H  0.16191968  0.13976633  0.78290580     0.14400
C530        C  0.17498861  0.21347135  0.82830000    -0.24600
H531        H  0.12446331  0.05308177  0.92410010     0.04600
H532        H  0.15823105  0.02701880  0.88603026     0.07800
H533        H  0.10611898  0.03516712  0.87349080     0.07800
H534        H  0.20588691  0.22559991  0.83332382     0.07800
H535        H  0.15300754  0.23414852  0.84612175     0.07800
H536        H  0.16885093  0.21395655  0.79449506     0.04500
C537        C  0.14052594  0.31445787  0.90546338    -0.21300
C538        C  0.17965090  0.31196092  0.88710614    -0.07800
C539        C  0.18480613  0.31272646  0.84336937     0.13000
C540        C  0.15025228  0.31052944  0.81884443    -0.21300
C541        C  0.11117383  0.30466142  0.83697469    -0.07800
C542        C  0.10592315  0.31009708  0.88115009     0.13000
C543        C  0.06557919  0.30875529  0.90478917    -0.24700
H544        H  0.13689964  0.31525058  0.93923615     0.14300
H545        H  0.15420125  0.30837772  0.78509773     0.14400
C546        C  0.22637126  0.31275469  0.82221012    -0.24600
H547        H  0.06548155  0.28243147  0.92637560     0.04600
H548        H  0.03894008  0.30456948  0.88497303     0.07800
H549        H  0.06159095  0.33910840  0.92410043     0.07800
H550        H  0.24469895  0.28545229  0.83086264     0.07800
H551        H  0.24251572  0.34238307  0.83183131     0.07800
H552        H  0.22458749  0.31122832  0.78764291     0.04500
C553        C  0.36055247  0.18048481  0.56983513    -0.21300
C554        C  0.32168564  0.18207858  0.58944500    -0.07800
C555        C  0.31779918  0.17804124  0.63321668     0.13000
C556        C  0.35298712  0.17811115  0.65625863    -0.21300
C557        C  0.39117136  0.18395165  0.63696825    -0.07800
C558        C  0.39555767  0.18102838  0.59313569     0.13000
C559        C  0.43662027  0.18233967  0.57084906    -0.24700
H560        H  0.36386902  0.18178622  0.53622024     0.14300
H561        H  0.35047458  0.17890642  0.69010298     0.14400
C562        C  0.27744688  0.17586344  0.65670252    -0.24600
H563        H  0.43398710  0.17874710  0.53637961     0.04600
H564        H  0.45552254  0.15567294  0.58036262     0.07800
H565        H  0.45216248  0.21332842  0.57850796     0.07800
H566        H  0.25940856  0.14867844  0.64346779     0.07800
H567        H  0.26063489  0.20618370  0.65529563     0.07800
H568        H  0.28120698  0.17061272  0.69028908     0.04500
C569        C  0.35994892  0.04872229  0.91771534    -0.21300
C570        C  0.39816826  0.06810621  0.91182813    -0.07800
C571        C  0.40040251  0.11199035  0.90507109     0.13000
C572        C  0.36478675  0.13629586  0.90897210    -0.21300
C573        C  0.32715843  0.11768692  0.92041684    -0.07800
C574        C  0.32425273  0.07267720  0.92136630     0.13000
C575        C  0.28447656  0.04957422  0.92927235    -0.24700
H576        H  0.35831771  0.01604907  0.92649938     0.14300
H577        H  0.36728480  0.17062982  0.90712083     0.14400
C578        C  0.44079844  0.13374779  0.89750473    -0.24600
H579        H  0.28779813  0.01443126  0.92364942     0.04600
H580        H  0.26124402  0.06010950  0.90784987     0.07800
H581        H  0.27373784  0.05551952  0.96220488     0.07800
H582        H  0.45634960  0.11814758  0.86959770     0.07800
H583        H  0.45918623  0.13200607  0.42600136     0.07800
H584        H  0.43721479  0.16812662  0.89199278     0.04500
C585        C  0.14492609  0.43971814  0.53888169    -0.21300
C586        C  0.10555370  0.42667476  0.52990498    -0.07800
C587        C  0.09496454  0.38283321  0.52349453     0.13000
C588        C  0.12479700  0.35302424  0.52735836    -0.21300
C589        C  0.16433368  0.36596941  0.53663514    -0.07800
C590        C  0.17504745  0.40978559  0.54119101     0.13000
C591        C  0.21739980  0.42574921  0.54934973    -0.24700
H592        H  0.15208576  0.47350138  0.54388648     0.14300
H593        H  0.11707753  0.32042008  0.02531040     0.14400
C594        C  0.05203036  0.36742821  0.02058299    -0.24600
H595        H  0.21848611  0.46104436  0.55492983     0.04600
H596        H  0.23747355  0.41971790  0.02522073     0.07800
H597        H  0.22816856  0.41118174  0.57727287     0.07800
H598        H  0.04019474  0.38069883  0.99242828     0.07800
H599        H  0.03123676  0.37223566  0.53958693     0.07800
H600        H  0.05100110  0.33209253  0.01497902     0.04500
C601        C  0.14389659  0.43894658  0.93281232    -0.21300
C602        C  0.10452068  0.43525871  0.91762659    -0.07800
C603        C  0.09954141  0.91741035  0.87612875     0.13000
C604        C  0.13417968  0.90910099  0.84977737    -0.21300
C605        C  0.17363993  0.41755198  0.86440270    -0.07800
C606        C  0.17819454  0.42872477  0.90737848     0.13000
C607        C  0.21935305  0.43531398  0.92609204    -0.24700
H608        H  0.14834613  0.45327297  0.96377486     0.14300
H609        H  0.13032961  0.90107041  0.81678203     0.14400
C610        C  0.05799550  0.91074182  0.85858798    -0.24600
H611        H  0.22193198  0.41431688  0.95244178     0.04600
H612        H  0.22302773  0.46916439  0.93784881     0.07800
H613        H  0.24444670  0.42727678  0.90327816     0.07800
H614        H  0.04262722  0.94181495  0.85752972     0.07800
H615        H  0.03931453  0.88978970  0.87832710     0.07800
H616        H  0.05988298  0.89528771  0.82659423     0.04500
C617        C  0.40367804  0.05802198  0.65302227    -0.21300
C618        C  0.39943072  0.06507420  0.61064702    -0.07800
C619        C  0.36010969  0.07253990  0.59552898     0.13000
C620        C  0.32655725  0.07186811  0.62335229    -0.21300
C621        C  0.33084945  0.05986254  0.66416758    -0.07800
C622        C  0.36971002  0.05179372  0.67898049     0.13000
C623        C  0.37652176  0.03053042  0.71901151    -0.24700
H624        H  0.43345101  0.05124378  0.66453240     0.14300
H625        H  0.29628807  0.07694862  0.61223602     0.14400
C626        C  0.35340113  0.57445808  0.54827899    -0.24600
H627        H  0.39803284  0.04972937  0.73815634     0.04600
H628        H  0.39089441  0.99912406  0.71142652     0.07800
H629        H  0.34841156  0.02487123  0.73783149     0.07800
H630        H  0.36085636  0.54357691  0.53113484     0.07800
H631        H  0.37082214  0.10145296  0.53642296     0.07800
H632        H  0.32105463  0.58137924  0.54256683     0.04500
C633        C  0.39749285  0.41563914  0.61999852    -0.21300
C634        C  0.40620242  0.40670281  0.57746417    -0.07800
C635        C  0.41592715  0.36476954  0.56259441     0.13000
C636        C  0.42513641  0.33503663  0.59132487    -0.21300
C637        C  0.42413724  0.34654018  0.63437781    -0.07800
C638        C  0.40597643  0.38568886  0.64898084     0.13000
C639        C  0.89692577  0.39702399  0.69384531    -0.24700
H640        H  0.88973887  0.44750613  0.63003480     0.14300
H641        H  0.43562703  0.30366536  0.57988891     0.14400
C642        C  0.42076862  0.35299545  0.51642732    -0.24600
H643        H  0.88052616  0.42770808  0.69832521     0.04600
H644        H  0.92549400  0.39998616  0.71134174     0.07800
H645        H  0.87666762  0.37232548  0.70699860     0.07800
H646        H  0.44581388  0.37190711  0.50237743     0.07800
H647        H  0.39197604  0.35943747  0.50088813     0.07800
H648        H  0.42800854  0.31861090  0.51019493     0.04500
C649        C  0.05015174  0.12168931  0.89346693    -0.21300
C650        C  0.03553797  0.08099779  0.87968478    -0.07800
C651        C  0.52913912  0.07232025  0.83579934     0.13000
C652        C  0.53175942  0.10678954  0.80983676    -0.21300
C653        C  0.03979160  0.14835359  0.82648552    -0.07800
C654        C  0.05171547  0.15533669  0.86793534     0.13000
C655        C  0.06476603  0.19858603  0.88641902    -0.24700
H656        H  0.05883184  0.12853620  0.92547845     0.14300
H657        H  0.52456284  0.10175989  0.77714920     0.14400
C658        C  0.51826642  0.02942094  0.81497818    -0.24600
H659        H  0.07875822  0.19660193  0.91727940     0.04600
H660        H  0.03795848  0.21963118  0.89126922     0.07800
H661        H  0.08759870  0.21304393  0.86534822     0.07800
H662        H  0.48770084  0.03084435  0.80149077     0.07800
H663        H  0.51809619  0.00263359  0.83530337     0.07800
H664        H  0.54084421  0.02143384  0.78926520     0.04500
C665        C  0.34159149  0.90750227  0.34732237     0.85500
C666        C  0.31831454  0.87336080  0.37127612    -0.54700
C667        C  0.34137571  0.84446024  0.39030649     0.08500
C668        C  0.38863808  0.85621932  0.38584868     0.19400
C669        C  0.36802885  0.93062972  0.37938882    -0.55400
C670        C  0.39273925  0.90587853  0.40087866     0.08600
C671        C  0.37176726  0.88152959  0.31806101    -0.55000
C672        C  0.39694779  0.85441481  0.33699982     0.09100
H673        H  0.28551978  0.87292635  0.37414177     0.13700
H674        H  0.40858040  0.83492446  0.40234933    -0.00600
H675        H  0.36975791  0.96506486  0.38172819     0.14000
H676        H  0.37248050  0.88374287  0.28443926     0.13700
C677        C  0.15510715  0.59943277  0.14987198     0.85500
C678        C  0.13250716  0.63722202  0.17323401    -0.54700
C679        C  0.10766609  0.66004634  0.14942943     0.08500
C680        C  0.10947904  0.64279192  0.10176580     0.19400
C681        C  0.12045607  0.57254565  0.12806554    -0.55400
C682        C  0.09610009  0.59411669  0.10210813     0.08600
C683        C  0.17861682  0.61882038  0.11342725    -0.55000
C684        C  0.15636191  0.64224624  0.08793097     0.09100
H685        H  0.13418395  0.64368674  0.20677898     0.13700
H686        H  0.09060600  0.66152999  0.08155440    -0.00600
H687        H  0.11675128  0.53846882  0.13156491     0.14000
H688        H  0.21111139  0.61464283  0.10845378     0.13700
O689        O  0.03719201  0.94041370  0.45064332    -0.81100
O690        O  0.46607252  0.94041024  0.05187402    -0.81100
O691        O  0.08505734  0.99785731  0.52055731    -0.81100
O692        O  0.41359120  0.95880597  0.45751327    -0.81100
O693        O  0.04183946  0.95204425  0.04363294    -0.81200
O694        O  0.46156288  0.93037825  0.41226747    -0.81100
O695        O  0.40843903  0.97245577  0.04437948    -0.81100
O696        O  0.07735203  0.99760114  0.45348343    -0.81100
C697        C  0.07117137  0.95839147  0.44168633     1.08600
C698        C  0.42809221  0.94106274  0.05503452     1.08500
C699        C  0.07702674  0.96153722  0.03311589     1.08600
C700        C  0.42475603  0.93039240  0.42669193     1.08500
O701        O  0.44717864  0.50741990  0.41078000    -0.81100
O702        O  0.04412278  0.53713453  0.08612888    -0.81200
O703        O  0.03255105  0.56757130  0.45063616    -0.81100
O704        O  0.43440533  0.06009015  0.04454447    -0.81100
O705        O  0.45749602  0.02324816  0.09387474    -0.81100
O706        O  0.51639377  0.51541534  0.40463630    -0.81100
O707        O  0.44058381  0.55440724  0.46236593    -0.81100
O708        O  0.06130597  0.57962439  0.03605747    -0.81100
Co709      Co  0.48890330  0.47691452  0.44501578     1.51500
Co710      Co  0.00163427  0.99027333  0.06460125     1.51700
Co711      Co  0.04049531  0.53049239  0.49496629     1.51600
Co712      Co  0.42818956  0.01277877  0.00253944     1.51500
O713        O  0.48949826  0.00529676  0.50451370    -1.43000
C714        C  0.43202948  0.54247298  0.42597748     1.08500
C715        C  0.06444063  0.57014606  0.07378774     1.08600
C716        C  0.02822672  0.55398496  0.41307724     1.08600
C717        C  0.43410589  0.55125957  0.08234713     1.08500
O718        O  0.31020873  0.77243006  0.40436766    -0.81100
O719        O  0.25421175  0.70449933  0.08062418    -0.81100
O720        O  0.30465788  0.80175280  0.02413887    -0.81100
O721        O  0.26947273  0.63233034  0.46606585    -0.81100
O722        O  0.26205784  0.79088695  0.07671538    -0.81200
O723        O  0.29669818  0.68611446  0.43116645    -0.81100
O724        O  0.29280502  0.69071612  0.02494500    -0.81100
O725        O  0.30100815  0.82621537  0.45052233    -0.81100
C726        C  0.31849913  0.81158805  0.41657855     1.08600
C727        C  0.28778728  0.69230359  0.06405159     1.08500
C728        C  0.29491970  0.80679105  0.06226669     1.08600
C729        C  0.29522406  0.64586192  0.43928188     1.08500
O730        O  0.22639374  0.71751330  0.40716684    -0.81100
O731        O  0.18255183  0.79529905  0.04566721    -0.81200
O732        O  0.22108639  0.82172525  0.44663468    -0.81100
O733        O  0.21072115  0.65355192  0.03456935    -0.81100
O734        O  0.17148587  0.70773305  0.05398499    -0.81100
O735        O  0.22847812  0.76230926  0.40764245    -0.81100
O736        O  0.20045634  0.67406302  0.45312378    -0.81100
O737        O  0.22983114  0.84097602  0.52584445    -0.81100
Co738      Co  0.27098567  0.74616800  0.44661368     1.51500
Co739      Co  0.21835332  0.74904216  0.05988886     1.51700
Co740      Co  0.25773513  0.79985915  0.48847484     1.51600
Co741      Co  0.24613903  0.68295495  0.98914976     1.51500
O742        O  0.23259827  0.74113648  0.49701636    -1.43000
C743        C  0.20034069  0.68755408  0.41703088     1.08500
C744        C  0.19419735  0.83281543  0.03755019     1.08600
C745        C  0.21214164  0.79902481  0.41426303     1.08600
C746        C  0.17906227  0.66832696  0.05535226     1.08500
O747        O  0.04279168  0.79517338  0.31257495    -0.81100
O748        O  0.46670229  0.78810092  0.14622006    -0.81100
O749        O  0.05332402  0.80425546  0.22816028    -0.81100
O750        O  0.41175787  0.81019434  0.27419000    -0.81100
O751        O  0.04895384  0.78655642  0.16087485    -0.81200
O752        O  0.45803973  0.81017003  0.32146977    -0.81100
O753        O  0.43368911  0.81928287  0.19991925    -0.81100
O754        O  0.09306499  0.75787434  0.28081421    -0.81100
C755        C  0.08085203  0.78540516  0.30915417     1.08600
C756        C  0.44290711  0.81685424  0.16176478     1.08500
C757        C  0.05789218  0.81331442  0.19078034     1.08600
C758        C  0.42391844  0.82333852  0.30997709     1.08500
O759        O  0.44849314  0.72391231  0.31189717    -0.81100
O760        O  0.04115250  0.69199290  0.15916985    -0.81200
O761        O  0.04316701  0.68814379  0.26504894    -0.81100
O762        O  0.40831594  0.73850007  0.18616360    -0.81100
O763        O  0.45881425  0.69899135  0.15705718    -0.81100
O764        O  0.51590254  0.71851544  0.32133335    -0.81100
O765        O  0.40573016  0.72842302  0.26060749    -0.81100
O766        O  0.08735130  0.72013078  0.19954606    -0.81100
Co767      Co  0.49192870  0.76311991  0.29052718     1.51500
Co768      Co  0.00379432  0.74220562  0.16121744     1.51700
Co769      Co  0.04817104  0.74647700  0.24574901     1.51600
Co770      Co  0.43798346  0.76909107  0.23076492     1.51500
O771        O  0.49379638  0.74590616  0.22610263    -1.43000
C772        C  0.41568860  0.71298127  0.29402420     1.08500
C773        C  0.07763124  0.69295830  0.16999727     1.08600
C774        C  0.03307657  0.68741185  0.30316138     1.08600
C775        C  0.42126753  0.70731370  0.16240588     1.08500
O776        O  0.29021684  0.96439836  0.34562993    -0.81100
O777        O  0.26690063  0.52877227  0.17580951    -0.81100
O778        O  0.29216487  0.94489808  0.20928947    -0.81100
O779        O  0.25944517  0.59624343  0.28783659    -0.81100
O780        O  0.24027030  0.95789779  0.17145318    -0.81200
O781        O  0.29778840  0.55190985  0.32170635    -0.81100
O782        O  0.28943031  0.56761956  0.22446556    -0.81100
O783        O  0.31271018  0.93517110  0.28629799    -0.81100
C784        C  0.31382140  0.93800070  0.32529480     1.08600
C785        C  0.29476477  0.55221624  0.18897685     1.08500
C786        C  0.27495304  0.94059635  0.17519581     1.08600
C787        C  0.29152454  0.58855333  0.30813485     1.08500
O788        O  0.21303326  0.55707904  0.33269991    -0.81100
O789        O  0.17304551  0.97609533  0.23371167    -0.81200
O790        O  0.22799253  0.91451581  0.31083460    -0.81100
O791        O  0.20596830  0.59329782  0.20681922    -0.81100
O792        O  0.18540428  0.53332433  0.17245795    -0.81100
O793        O  0.20425446  0.97593578  0.33747622    -0.81100
O794        O  0.18087710  0.54928362  0.27440967    -0.81100
O795        O  0.20906846  0.91761501  0.22905717    -0.81100
Co796      Co  0.25320195  0.51096863  0.32928986     1.51500
Co797      Co  0.22068615  0.00712603  0.21147955     1.51700
Co798      Co  0.26015207  0.93239991  0.25901100     1.51600
Co799      Co  0.23467990  0.55343714  0.24537389     1.51500
O800        O  0.25291522  0.99726329  0.26567265    -1.43000
C801        C  0.18188555  0.56296856  0.31204204     1.08500
C802        C  0.17555473  0.93630805  0.22555371     1.08600
C803        C  0.20324420  0.93611356  0.33491429     1.08600
C804        C  0.18349916  0.57440202  0.17789168     1.08500
C805        C  0.34863846  0.69410500  0.32127450    -0.21300
C806        C  0.38820760  0.68083379  0.31020580    -0.07800
C807        C  0.39621657  0.63700225  0.30178618     0.13000
C808        C  0.36432161  0.60748353  0.30537649    -0.21300
C809        C  0.32408187  0.62100484  0.31249326    -0.07800
C810        C  0.31626725  0.66476190  0.32100578     0.13000
C811        C  0.27397952  0.68072725  0.32895111    -0.24700
H812        H  0.34253668  0.72803211  0.32613747     0.14300
H813        H  0.37055080  0.57374925  0.30024323     0.14400
C814        C  0.43658685  0.62114935  0.28389449    -0.24600
H815        H  0.27415841  0.71522515  0.33895891     0.04600
H816        H  0.25902455  0.66262523  0.35387485     0.07800
H817        H  0.25652596  0.67633926  0.29996413     0.07800
H818        H  0.46099186  0.64533819  0.28811727     0.07800
H819        H  0.43417608  0.61339223  0.24987676     0.07800
H820        H  0.44569376  0.59205881  0.29916749     0.04500
C821        C  0.11678736  0.85074281  0.16339310    -0.21300
C822        C  0.07911613  0.85371238  0.18424111    -0.07800
C823        C  0.07028484  0.88997248  0.21142054     0.13000
C824        C  0.10179551  0.91830883  0.22305644    -0.21300
C825        C  0.14148303  0.91133040  0.20716767    -0.07800
C826        C  0.14835284  0.87885611  0.17471674     0.13000
C827        C  0.18873920  0.87286238  0.15187746    -0.24700
H828        H  0.12301615  0.82338055  0.14184322     0.14300
H829        H  0.09578603  0.94424010  0.24632526     0.14400
C830        C  0.02813231  0.89783620  0.22991701    -0.24600
H831        H  0.18744581  0.84752739  0.12622917     0.04600
H832        H  0.21237545  0.86320657  0.17312752     0.07800
H833        H  0.19720500  0.90303145  0.13775378     0.07800
H834        H  0.02812820  0.89612916  0.26426074     0.07800
H835        H  0.00566688  0.87419428  0.21717574     0.07800
H836        H  0.01796364  0.93008563  0.22247492     0.04500
C837        C  0.31266749  0.88223527  0.07486481    -0.21300
C838        C  0.31391132  0.84048295  0.08882175    -0.07800
C839        C  0.31349907  0.83505600  0.13195275     0.13000
C840        C  0.30139691  0.86894749  0.15936544    -0.21300
C841        C  0.29275699  0.90898142  0.14465220    -0.07800
C842        C  0.30328234  0.91718874  0.10309213     0.13000
C843        C  0.30465816  0.96212959  0.08898174    -0.24700
H844        H  0.31492949  0.88697933  0.04169113     0.14300
H845        H  0.29691275  0.86344903  0.19225930     0.14400
C846        C  0.32174240  0.79255166  0.14908860    -0.24600
H847        H  0.31183310  0.96269236  0.05495666     0.04600
H848        H  0.32867718  0.98047100  0.10591362     0.07800
H849        H  0.27524887  0.97832633  0.09603502     0.07800
H850        H  0.33187408  0.76874655  0.12400596     0.08600
H851        H  0.29383649  0.78044998  0.16499837     0.07800
H852        H  0.34634003  0.79630595  0.17194648     0.04500
C853        C  0.15328729  0.62623027  0.40166797    -0.21300
C854        C  0.17216802  0.66361292  0.38737718    -0.07800
C855        C  0.16935153  0.67016881  0.34440567     0.13000
C856        C  0.15905587  0.63565916  0.31644098    -0.21300
C857        C  0.15357705  0.59473993  0.33098457    -0.07800
C858        C  0.14439353  0.59148510  0.37380028     0.13000
C859        C  0.13379108  0.54885884  0.39071591    -0.24700
H860        H  0.15063169  0.62147082  0.43480125     0.14300
H861        H  0.16247674  0.63918953  0.28311063     0.14400
C862        C  0.17473670  0.71323476  0.32832807    -0.24600
H863        H  0.12603912  0.55238031  0.42463388     0.04600
H864        H  0.15985053  0.52676028  0.38631364     0.07800
H865        H  0.10747289  0.53430313  0.37423225     0.07800
H866        H  0.20558934  0.72550705  0.33358730     0.07800
H867        H  0.15241322  0.73390748  0.34574332     0.07800
H868        H  0.16893608  0.71348265  0.29443339     0.04500
C869        C  0.14047277  0.81497077  0.40566956    -0.21300
C870        C  0.17966849  0.81196405  0.38752121    -0.07800
C871        C  0.18508766  0.81278471  0.34382155     0.13000
C872        C  0.15070616  0.81106223  0.31910243    -0.21300
C873        C  0.11144031  0.80583259  0.33696171    -0.07800
C874        C  0.10596968  0.81128227  0.38113567     0.13000
C875        C  0.06545745  0.81087070  0.40454207    -0.24700
H876        H  0.13664888  0.81579447  0.43942717     0.14300
H877        H  0.15486110  0.80898926  0.28537419     0.14400
C878        C  0.22673777  0.81265774  0.32286346    -0.24600
H879        H  0.06472659  0.78480780  0.42641351     0.04600
H880        H  0.03891769  0.80704487  0.38453257     0.07800
H881        H  0.06190898  0.84137516  0.42369015     0.07800
H882        H  0.24496377  0.78536041  0.33169577     0.07800
H883        H  0.24283416  0.84234456  0.33239665     0.07800
H884        H  0.22512082  0.81099578  0.28828068     0.04500
C885        C  0.36079944  0.67952345  0.07057184    -0.21300
C886        C  0.32189975  0.68176705  0.09006167    -0.07800
C887        C  0.31785749  0.67811167  0.13388648     0.13000
C888        C  0.35297930  0.67818885  0.15705471    -0.21300
C889        C  0.39126544  0.68356777  0.13781003    -0.07800
C890        C  0.39573953  0.68001376  0.09398552     0.13000
C891        C  0.43685838  0.68061484  0.07176414    -0.24700
H892        H  0.36422855  0.68043515  0.03693087     0.14300
H893        H  0.35036592  0.67935678  0.19090554     0.14400
C894        C  0.27743042  0.67630871  0.15727993    -0.24600
H895        H  0.43428318  0.67646338  0.03731386     0.04600
H896        H  0.45551683  0.65398338  0.08176607     0.07800
H897        H  0.45262482  0.71157268  0.07896183     0.07800
H898        H  0.25935465  0.64906824  0.14423526     0.07800
H899        H  0.26071847  0.70664290  0.15555023     0.07800
H900        H  0.28106796  0.67136135  0.19094665     0.04500
C901        C  0.35884298  0.54675404  0.41735776    -0.21300
C902        C  0.39740131  0.56458254  0.40909446    -0.07800
C903        C  0.40020011  0.60887107  0.40360193     0.13000
C904        C  0.36513729  0.63418815  0.40904279    -0.21300
C905        C  0.32723454  0.61648808  0.42089790    -0.07800
C906        C  0.32365820  0.57154782  0.42190301     0.13000
C907        C  0.28363210  0.54921217  0.43060676    -0.24700
H908        H  0.35656534  0.51470015  0.42752982     0.14300
H909        H  0.36832416  0.66853716  0.40779724     0.14400
C910        C  0.44092484  0.63020783  0.39666243    -0.24600
H911        H  0.28629230  0.51402326  0.42486031     0.04600
H912        H  0.26019091  0.56019462  0.40964416     0.07800
H913        H  0.27359463  0.55529660  0.46374040     0.07800
H914        H  0.45669307  0.61469826  0.36887614     0.07800
H915        H  0.46010623  0.63099722  0.92380426     0.07800
H916        H  0.43784693  0.66472588  0.39148708     0.04500
C917        C  0.14621042  0.94063341  0.04163348    -0.21300
C918        C  0.10639574  0.92824064  0.03391116    -0.07800
C919        C  0.09507734  0.88430827  0.02859134     0.13000
C920        C  0.12492463  0.85418057  0.03089266    -0.21300
C921        C  0.16496356  0.86657607  0.03813488    -0.07800
C922        C  0.17614440  0.91026785  0.04267767     0.13000
C923        C  0.21889134  0.92566618  0.04947629    -0.24700
H924        H  0.15396711  0.97431754  0.04615136     0.14300
H925        H  0.11678987  0.82041797  0.52689338     0.14400
C926        C  0.05195337  0.86740959  0.52135933    -0.24600
H927        H  0.22046336  0.96090523  0.05534818     0.04600
H928        H  0.23846043  0.91749384  0.52186488     0.07800
H929        H  0.23030913  0.91064053  0.07685962     0.07800
H930        H  0.03983074  0.88049346  0.49320741     0.07800
H931        H  0.03176957  0.87592956  0.04804738     0.07800
H932        H  0.05085932  0.83204679  0.51604107     0.04500
C933        C  0.14374082  0.93943116  0.43241022    -0.21300
C934        C  0.10434352  0.93538202  0.41738123    -0.07800
C935        C  0.10346380  0.41774987  0.37123664     0.13000
C936        C  0.13888498  0.40786366  0.34707360    -0.21300
C937        C  0.17339895  0.91776440  0.36410082    -0.07800
C938        C  0.17800400  0.92920334  0.40699144     0.13000
C939        C  0.21917080  0.93625507  0.42555225    -0.24700
H940        H  0.14823892  0.95426863  0.46312165     0.14300
H941        H  0.13648210  0.39857379  0.31412468     0.14400
C942        C  0.06282937  0.40935664  0.35188403    -0.24600
H943        H  0.22200216  0.91523630  0.45179986     0.04600
H944        H  0.22257268  0.97014244  0.43730468     0.07800
H945        H  0.24428634  0.92841224  0.40272099     0.07800
H946        H  0.04669929  0.43979854  0.34886773     0.07800
H947        H  0.04386995  0.38831723  0.37129274     0.07800
H948        H  0.06649138  0.39277586  0.32050824     0.04500
C949        C  0.40427486  0.55829978  0.15295170    -0.21300
C950        C  0.39996111  0.56489216  0.11051102    -0.07800
C951        C  0.36059785  0.57204307  0.09532762     0.13000
C952        C  0.32708929  0.57169178  0.12321016    -0.21300
C953        C  0.33145380  0.56027865  0.16419892    -0.07800
C954        C  0.37035338  0.55240515  0.17905052     0.13000
C955        C  0.37733762  0.53190251  0.21944681    -0.24700
H956        H  0.43408342  0.55174583  0.16450259     0.14300
H957        H  0.29680412  0.57667521  0.11208469     0.14400
C958        C  0.35213126  0.07501318  0.04925186    -0.24600
H959        H  0.39866580  0.55173023  0.23825432     0.04600
H960        H  0.39199812  0.50054446  0.21239211     0.07800
H961        H  0.34929946  0.52622628  0.23836100     0.07800
H962        H  0.35921349  0.04403591  0.03205998     0.07800
H963        H  0.37099716  0.60058120  0.03598919     0.07800
H964        H  0.31971394  0.08206814  0.04402833     0.04500
C965        C  0.39957768  0.91569828  0.11874542    -0.21300
C966        C  0.40900173  0.90652607  0.07638617    -0.07800
C967        C  0.41838463  0.86456100  0.06164930     0.13000
C968        C  0.42640944  0.83465343  0.09058578    -0.21300
C969        C  0.42473422  0.84621072  0.13366173    -0.07800
C970        C  0.40694342  0.88564243  0.14793596     0.13000
C971        C  0.89763148  0.89789870  0.19318420    -0.24700
H972        H  0.89132588  0.94860439  0.12943564     0.14300
H973        H  0.43661798  0.80311708  0.07935479     0.14400
C974        C  0.42366788  0.85283340  0.01549475    -0.24600
H975        H  0.88148202  0.92873172  0.19763410     0.04600
H976        H  0.92615447  0.90056631  0.21077723     0.07800
H977        H  0.87713913  0.87337757  0.20628772     0.07800
H978        H  0.44882657  0.87176394  0.00161490     0.07800
H979        H  0.39504267  0.85937770  0.99968740     0.07800
H980        H  0.43086411  0.81843521  0.00932246     0.04500
C981        C  0.04982187  0.62528078  0.39559384    -0.21300
C982        C  0.03734088  0.58431770  0.38083672    -0.07800
C983        C  0.53282357  0.57495514  0.33756679     0.13000
C984        C  0.53570986  0.60900468  0.31116352    -0.21300
C985        C  0.04168743  0.65141426  0.32776909    -0.07800
C986        C  0.05152072  0.65891971  0.36995812     0.13000
C987        C  0.06226478  0.70254913  0.38911797    -0.24700
H988        H  0.05619686  0.63214395  0.42824902     0.14300
H989        H  0.52939402  0.60360461  0.27830560     0.14400
C990        C  0.52362535  0.53082217  0.31889942    -0.24600
H991        H  0.07478762  0.70097930  0.42072314     0.04600
H992        H  0.03463326  0.72254884  0.39266763     0.07800
H993        H  0.08567856  0.71783773  0.36928487     0.07800
H994        H  0.49394961  0.51915763  0.33139297     0.07800
H995        H  0.54837646  0.50897585  0.32614059     0.07800
H996        H  0.52178466  0.53032531  0.28436925     0.04500
C997        C  0.34173191  0.90694323  0.84702877     0.85500
C998        C  0.31849590  0.87277810  0.87097321    -0.54700
C999        C  0.34158406  0.84396221  0.89006527     0.08500
C1000       C  0.38883199  0.85578151  0.88561594     0.19400
C1001       C  0.36813961  0.93014171  0.87907689    -0.55400
C1002       C  0.39289704  0.90546522  0.90058197     0.08600
C1003       C  0.37192143  0.88100715  0.81779450    -0.55000
C1004       C  0.39711086  0.85392909  0.83676513     0.09100
H1005       H  0.28570262  0.87222112  0.87373839     0.13700
H1006       H  0.40879698  0.83452615  0.90213568    -0.00600
H1007       H  0.36985141  0.96456690  0.88134620     0.14000
H1008       H  0.37258494  0.88315697  0.78416880     0.13700
C1009       C  0.15436592  0.59826225  0.64823026     0.85500
C1010       C  0.13145871  0.63566774  0.67178397    -0.54700
C1011       C  0.10637034  0.65836797  0.64818175     0.08500
C1012       C  0.10821577  0.64122581  0.60039347     0.19400
C1013       C  0.11999241  0.57098939  0.62644770    -0.55400
C1014       C  0.09524378  0.59222561  0.60066155     0.08600
C1015       C  0.17767062  0.61804222  0.61196384    -0.55000
C1016       C  0.15525514  0.64137691  0.58657732     0.09100
H1017       H  0.13327519  0.64208319  0.70532443     0.13700
H1018       H  0.08911199  0.65983929  0.58029442    -0.00600
H1019       H  0.11660615  0.53689494  0.63003290     0.14000
H1020       H  0.21026812  0.61445833  0.60722600     0.13700
O1021       O  0.03753350  0.94090371  0.95062044    -0.81100
O1022       O  0.46572546  0.94057968  0.55232977    -0.81100
O1023       O  0.08578726  0.99814596  0.02054111    -0.81100
O1024       O  0.41382504  0.95842595  0.95721268    -0.81100
O1025       O  0.04124896  0.95151294  0.54346382    -0.81200
O1026       O  0.46173884  0.93018221  0.91170011    -0.81100
O1027       O  0.40808329  0.97258400  0.54464140    -0.81100
O1028       O  0.07776300  0.99804007  0.95307213    -0.81100
C1029       C  0.07147918  0.95881728  0.94138938     1.08600
C1030       C  0.42773870  0.94120826  0.55535669     1.08500
C1031       C  0.07643237  0.96120741  0.53316939     1.08600
C1032       C  0.42495722  0.93007438  0.92627457     1.08500
O1033       O  0.44479061  0.51096059  0.91829604    -0.81100
O1034       O  0.04425798  0.53376802  0.58530037    -0.81200
O1035       O  0.03252993  0.56676198  0.95004708    -0.81100
O1036       O  0.43410139  0.06024943  0.54493651    -0.81100
O1037       O  0.45717077  0.02338750  0.59423922    -0.81100
O1038       O  0.51564712  0.51246839  0.90639846    -0.81100
O1039       O  0.43983051  0.55894425  0.96641184    -0.81100
O1040       O  0.05830921  0.57752761  0.53575478    -0.81100
Co1041     Co  0.48688987  0.47438193  0.94678620     1.51500
Co1042     Co  0.00104926  0.98962368  0.56441768     1.51700
Co1043     Co  0.04309067  0.53254635  0.99572648     1.51600
Co1044     Co  0.42792479  0.01296627  0.50288334     1.51500
O1045       O  0.48983409  0.00531020  0.00421417    -1.43000
C1046       C  0.43192167  0.54699858  0.93058205     1.08500
C1047       C  0.06321307  0.56761562  0.57301721     1.08600
C1048       C  0.02750902  0.55107938  0.91314989     1.08600
C1049       C  0.43474584  0.55117273  0.58229773     1.08500
O1050       O  0.31022033  0.77205905  0.90422471    -0.81100
O1051       O  0.25372316  0.70401597  0.58036172    -0.81100
O1052       O  0.30453445  0.80139909  0.52407000    -0.81100
O1053       O  0.26957986  0.63207864  0.96643432    -0.81100
O1054       O  0.26196833  0.79048607  0.57668198    -0.81200
O1055       O  0.29611804  0.68610208  0.93132071    -0.81100
O1056       O  0.29245359  0.69078556  0.52472313    -0.81100
O1057       O  0.30135532  0.82585364  0.95038260    -0.81100
C1058       C  0.31871206  0.81116620  0.91640414     1.08600
C1059       C  0.28734708  0.69198336  0.56379460     1.08500
C1060       C  0.29483797  0.80638931  0.56220443     1.08600
C1061       C  0.29485633  0.64586326  0.93934003     1.08500
O1062       O  0.22662377  0.71708976  0.90735619    -0.81100
O1063       O  0.18239745  0.79531675  0.54586847    -0.81200
O1064       O  0.22124211  0.82144108  0.94636685    -0.81100
O1065       O  0.21009646  0.65354491  0.53390380    -0.81100
O1066       O  0.17092989  0.70764907  0.55386997    -0.81100
O1067       O  0.22839554  0.76182501  0.90769828    -0.81100
O1068       O  0.20069479  0.67366516  0.95339219    -0.81100
O1069       O  0.22996702  0.84087140  0.02540751    -0.81100
Co1070     Co  0.27102310  0.74619088  0.94671495     1.51500
Co1071     Co  0.21805449  0.74882761  0.55982237     1.51700
Co1072     Co  0.25797133  0.79967571  0.98830134     1.51600
Co1073     Co  0.24587487  0.68315237  0.48884896     1.51500
O1074       O  0.23284747  0.74100708  0.99714225    -1.43000
C1075       C  0.20081398  0.68688264  0.91715626     1.08500
C1076       C  0.19404043  0.83288195  0.53791047     1.08600
C1077       C  0.21211845  0.79857979  0.91414016     1.08600
C1078       C  0.17827173  0.66810295  0.55460200     1.08500
O1079       O  0.04263376  0.79296584  0.81271135    -0.81100
O1080       O  0.46669339  0.78832533  0.64619327    -0.81100
O1081       O  0.05350963  0.80237511  0.72838623    -0.81100
O1082       O  0.41160325  0.80961708  0.77400776    -0.81100
O1083       O  0.04838164  0.78535049  0.66101118    -0.81200
O1084       O  0.45795272  0.80935979  0.82118289    -0.81100
O1085       O  0.43258932  0.81852630  0.69968190    -0.81100
O1086       O  0.09271994  0.75535687  0.78091489    -0.81100
C1087       C  0.08064514  0.78305476  0.80921807     1.08600
C1088       C  0.44241746  0.81663177  0.66168259     1.08500
C1089       C  0.05782601  0.81173731  0.69105675     1.08600
C1090       C  0.42389455  0.82271619  0.80974783     1.08500
O1091       O  0.44733403  0.72354112  0.81169952    -0.81100
O1092       O  0.04001931  0.69074836  0.65862893    -0.81200
O1093       O  0.04208686  0.68583743  0.76428685    -0.81100
O1094       O  0.40780763  0.73791343  0.68585434    -0.81100
O1095       O  0.45841114  0.69905399  0.65609425    -0.81100
O1096       O  0.51408051  0.71622932  0.82030074    -0.81100
O1097       O  0.40494784  0.72785087  0.76007993    -0.81100
O1098       O  0.08658840  0.71811940  0.69899525    -0.81100
Co1099     Co  0.49131298  0.76199681  0.79015811     1.51500
Co1100     Co  0.00295408  0.74126139  0.66133405     1.51700
Co1101     Co  0.04775100  0.74446717  0.74559610     1.51600
Co1102     Co  0.43746170  0.76842078  0.73046819     1.51500
O1103       O  0.49330529  0.74528514  0.72566771    -1.43000
C1104       C  0.41462342  0.71261561  0.79366791     1.08500
C1105       C  0.07657520  0.69134780  0.66918950     1.08600
C1106       C  0.03156328  0.68449358  0.80223873     1.08600
C1107       C  0.42083525  0.70699864  0.66180983     1.08500
O1108       O  0.29032256  0.96371650  0.84545993    -0.81100
O1109       O  0.26653394  0.52730198  0.67442044    -0.81100
O1110       O  0.29197428  0.94451083  0.70914854    -0.81100
O1111       O  0.25856131  0.59608289  0.78619805    -0.81100
O1112       O  0.23995819  0.95726551  0.67141137    -0.81200
O1113       O  0.29645195  0.55158718  0.82043146    -0.81100
O1114       O  0.28854065  0.56676263  0.72290829    -0.81100
O1115       O  0.31274132  0.93461674  0.78605178    -0.81100
C1116       C  0.31391579  0.93739172  0.82504418     1.08600
C1117       C  0.29417951  0.55110264  0.68750196     1.08500
C1118       C  0.27470392  0.94009693  0.67509802     1.08600
C1119       C  0.29042144  0.58826006  0.80678218     1.08500
O1120       O  0.21188179  0.55766905  0.83135859    -0.81100
O1121       O  0.17274105  0.97526048  0.73363978    -0.81200
O1122       O  0.22812038  0.91370216  0.81071703    -0.81100
O1123       O  0.20528461  0.59267903  0.70502636    -0.81100
O1124       O  0.18505606  0.53253646  0.67070484    -0.81100
O1125       O  0.20440932  0.97505252  0.83747686    -0.81100
O1126       O  0.17970892  0.54983670  0.77303279    -0.81100
O1127       O  0.20898663  0.91692061  0.72906321    -0.81100
Co1128     Co  0.25149446  0.51118196  0.82867701     1.51500
Co1129     Co  0.22037937  0.00643007  0.71149827     1.51700
Co1130     Co  0.26010952  0.93180106  0.75889719     1.51600
Co1131     Co  0.23359589  0.55311371  0.74402455     1.51500
O1132       O  0.25265212  0.99664387  0.76572128    -1.43000
C1133       C  0.18080248  0.56364762  0.81062126     1.08500
C1134       C  0.17539247  0.93545057  0.72554050     1.08600
C1135       C  0.20341259  0.93524210  0.83487666     1.08600
C1136       C  0.18297309  0.57357068  0.67610575     1.08500
C1137       C  0.34768919  0.69363819  0.82110745    -0.21300
C1138       C  0.38714847  0.68040961  0.80965558    -0.07800
C1139       C  0.39494849  0.63666845  0.80045957     0.13000
C1140       C  0.36313907  0.60710821  0.80409157    -0.21300
C1141       C  0.32299349  0.62062168  0.81149382    -0.07800
C1142       C  0.31529551  0.66431470  0.82057719     0.13000
C1143       C  0.27311516  0.68022090  0.82891001    -0.24700
H1144       H  0.34167462  0.72753819  0.82646060     0.14300
H1145       H  0.36929355  0.57340849  0.79851837     0.14400
C1146       C  0.43500281  0.62093787  0.78189640    -0.24600
H1147       H  0.27343719  0.71462607  0.83927249     0.04600
H1148       H  0.25833185  0.66182724  0.85370851     0.07800
H1149       H  0.25552921  0.67614370  0.79998900     0.07800
H1150       H  0.45922134  0.64547729  0.78464591     0.07800
H1151       H  0.43183127  0.61214909  0.74815780     0.07800
H1152       H  0.44467271  0.59260916  0.79791810     0.04500
C1153       C  0.11698282  0.84904316  0.66398280    -0.21300
C1154       C  0.07921980  0.85208926  0.68464210    -0.07800
C1155       C  0.07025291  0.88849056  0.71158308     0.13000
C1156       C  0.10164799  0.91709162  0.72300897    -0.21300
C1157       C  0.14140178  0.91017197  0.70726027    -0.07800
C1158       C  0.14844800  0.87737228  0.67513865     0.13000
C1159       C  0.18894103  0.87117952  0.65251466    -0.24700
H1160       H  0.12333493  0.82151707  0.64268035     0.14300
H1161       H  0.09549973  0.94320311  0.74603967     0.14400
C1162       C  0.02805237  0.89634542  0.72995733    -0.24600
H1163       H  0.18774055  0.84563959  0.62704624     0.04600
H1164       H  0.21245969  0.86168075  0.67397465     0.07800
H1165       H  0.19755853  0.90118303  0.63815669     0.07800
H1166       H  0.02804209  0.89507002  0.76435008     0.07800
H1167       H  0.00568754  0.87245898  0.71746724     0.07800
H1168       H  0.01775054  0.92842274  0.72212287     0.04500
C1169       C  0.31241840  0.88188151  0.57473863    -0.21300
C1170       C  0.31381993  0.84012861  0.58869623    -0.07800
C1171       C  0.31351210  0.83469596  0.63181311     0.13000
C1172       C  0.30132492  0.86853695  0.65924304    -0.21300
C1173       C  0.29254921  0.90854286  0.64454559    -0.07800
C1174       C  0.30299395  0.91680367  0.60298509     0.13000
C1175       C  0.30425238  0.96177112  0.58891199    -0.24700
H1176       H  0.31460462  0.88663663  0.54156426     0.14300
H1177       H  0.29689928  0.86302234  0.69213915     0.14400
C1178       C  0.32193393  0.79221168  0.64890629    -0.24600
H1179       H  0.31136387  0.96237516  0.55487839     0.04600
H1180       H  0.32825525  0.98017203  0.60581639     0.07800
H1181       H  0.27482237  0.97790463  0.59603262     0.07800
H1182       H  0.33213599  0.76845535  0.62380237     0.08600
H1183       H  0.29408782  0.77998009  0.66482260     0.07800
H1184       H  0.34653204  0.79605688  0.67175173     0.04500
C1185       C  0.15523365  0.62448573  0.90109061    -0.21300
C1186       C  0.17325644  0.66244452  0.88722918    -0.07800
C1187       C  0.16930510  0.66997249  0.84455430     0.13000
C1188       C  0.15784970  0.63623982  0.81616706    -0.21300
C1189       C  0.15226413  0.59502141  0.82987944    -0.07800
C1190       C  0.14429417  0.59098755  0.87274227     0.13000
C1191       C  0.13410886  0.54825080  0.88924780    -0.24700
H1192       H  0.15382875  0.61844567  0.93399947     0.14300
H1193       H  0.16038631  0.64050839  0.78290859     0.14400
C1194       C  0.17459464  0.71332981  0.82929862    -0.24600
H1195       H  0.10940859  0.55252177  0.91310851     0.04600
H1196       H  0.16102412  0.53541634  0.90416023     0.07800
H1197       H  0.12401846  0.52491985  0.86409784     0.07800
H1198       H  0.20571984  0.72512275  0.83360940     0.07800
H1199       H  0.15320336  0.73382817  0.84814562     0.07800
H1200       H  0.16755177  0.71451230  0.79577031     0.04500
C1201       C  0.14028364  0.81376837  0.90556928    -0.21300
C1202       C  0.17950388  0.81134027  0.88741861    -0.07800
C1203       C  0.18481646  0.81209695  0.84368205     0.13000
C1204       C  0.15038389  0.80968212  0.81896015    -0.21300
C1205       C  0.11123656  0.80379303  0.83688786    -0.07800
C1206       C  0.10578925  0.80932926  0.88106172     0.13000
C1207       C  0.06534288  0.80799428  0.90452179    -0.24700
H1208       H  0.13650154  0.81457438  0.93932958     0.14300
H1209       H  0.15449117  0.80747907  0.78522970     0.14400
C1210       C  0.22645490  0.81226977  0.82271764    -0.24600
H1211       H  0.06518118  0.78173583  0.92618501     0.04600
H1212       H  0.03879481  0.80369134  0.88459463     0.07800
H1213       H  0.06123518  0.83838224  0.92375307     0.07800
H1214       H  0.24483156  0.78505612  0.83149106     0.07800
H1215       H  0.24242066  0.84198607  0.83238303     0.07800
H1216       H  0.22482910  0.81069606  0.78813731     0.04500
C1217       C  0.36028652  0.67871592  0.57019887    -0.21300
C1218       C  0.32141903  0.68120660  0.58974313    -0.07800
C1219       C  0.31740142  0.67755157  0.63355821     0.13000
C1220       C  0.35254990  0.67769168  0.65669618    -0.21300
C1221       C  0.39082213  0.68304159  0.63738154    -0.07800
C1222       C  0.39525283  0.67913222  0.59356387     0.13000
C1223       C  0.43635078  0.67920651  0.57126900    -0.24700
H1224       H  0.36368687  0.67948123  0.53654392     0.14300
H1225       H  0.34996080  0.67896877  0.69055007     0.14400
C1226       C  0.27697037  0.67573347  0.65694697    -0.24600
H1227       H  0.43370946  0.67460384  0.53685338     0.04600
H1228       H  0.45487386  0.65262209  0.58159205     0.07800
H1229       H  0.45229679  0.71014264  0.57804022     0.07800
H1230       H  0.25881269  0.64857272  0.64380204     0.07800
H1231       H  0.26032627  0.70612648  0.65532099     0.07800
H1232       H  0.28061781  0.67065899  0.69058674     0.04500
C1233       C  0.35987410  0.54822513  0.91785775    -0.21300
C1234       C  0.39800138  0.56769628  0.91168492    -0.07800
C1235       C  0.40006576  0.61150786  0.90464606     0.13000
C1236       C  0.36441476  0.63572826  0.90875721    -0.21300
C1237       C  0.32692730  0.61709005  0.92064549    -0.07800
C1238       C  0.32414313  0.57208226  0.92174780     0.13000
C1239       C  0.28453397  0.54887876  0.93019832    -0.24700
H1240       H  0.35839548  0.51563310  0.92691544     0.14300
H1241       H  0.36682368  0.67004831  0.90676112     0.14400
C1242       C  0.44034916  0.63331745  0.89667531    -0.24600
H1243       H  0.28794718  0.51372343  0.92477082     0.04600
H1244       H  0.26104247  0.55915147  0.90893098     0.07800
H1245       H  0.27410585  0.55499875  0.96320792     0.07800
H1246       H  0.45563261  0.61771869  0.86862250     0.07800
H1247       H  0.46001802  0.62731688  0.42420552     0.07800
H1248       H  0.43665616  0.66768546  0.89118645     0.04500
C1249       C  0.14571914  0.94059689  0.54175547    -0.21300
C1250       C  0.10592565  0.92804293  0.53415144    -0.07800
C1251       C  0.09473155  0.88405820  0.52905944     0.13000
C1252       C  0.12468266  0.85405625  0.53138943    -0.21300
C1253       C  0.16471858  0.86659631  0.53848367    -0.07800
C1254       C  0.17576225  0.91034067  0.54283957     0.13000
C1255       C  0.21846332  0.92591814  0.54950896    -0.24700
H1256       H  0.15337698  0.97431903  0.54611090     0.14300
H1257       H  0.11696744  0.82057056  0.02624745     0.14400
C1258       C  0.05228867  0.86784444  0.02065144    -0.24600
H1259       H  0.21996685  0.96120242  0.55503295     0.04600
H1260       H  0.23885844  0.91746367  0.02175627     0.07800
H1261       H  0.22985729  0.91123513  0.57709394     0.07800
H1262       H  0.04039287  0.88094265  0.99242221     0.07800
H1263       H  0.03157045  0.87543603  0.54888219     0.07800
H1264       H  0.05109071  0.83248707  0.01531314     0.04500
C1265       C  0.14400187  0.93954103  0.93219196    -0.21300
C1266       C  0.10460159  0.93557302  0.91716022    -0.07800
C1267       C  0.09956388  0.41774106  0.87634853     0.13000
C1268       C  0.13424066  0.40985791  0.84995654    -0.21300
C1269       C  0.17361005  0.91689316  0.86411481    -0.07800
C1270       C  0.17821298  0.92864414  0.90694268     0.13000
C1271       C  0.21940466  0.93531254  0.92553111    -0.24700
H1272       H  0.14855781  0.95463716  0.96279739     0.14300
H1273       H  0.13043432  0.40223280  0.81688601     0.14400
C1274       C  0.05806130  0.41127514  0.85865379    -0.24600
H1275       H  0.22192191  0.91443487  0.95193175     0.04600
H1276       H  0.22320155  0.96922254  0.93705648     0.07800
H1277       H  0.24445411  0.92700002  0.90276604     0.07800
H1278       H  0.04264196  0.44235729  0.85805401     0.07800
H1279       H  0.03938629  0.38995066  0.87800887     0.07800
H1280       H  0.06003197  0.39634887  0.82645352     0.04500
C1281       C  0.40399776  0.55834340  0.65242105    -0.21300
C1282       C  0.40016919  0.56494477  0.60990278    -0.07800
C1283       C  0.36093901  0.57163881  0.59424356     0.13000
C1284       C  0.32705472  0.57083164  0.62175054    -0.21300
C1285       C  0.33103376  0.55931624  0.66282398    -0.07800
C1286       C  0.36985420  0.55179282  0.67803888     0.13000
C1287       C  0.37658244  0.53072750  0.71818990    -0.24700
H1288       H  0.43372332  0.55207456  0.66433925     0.14300
H1289       H  0.29686898  0.57551729  0.61025245     0.14400
C1290       C  0.35195313  0.07583674  0.54973649    -0.24600
H1291       H  0.39782125  0.55019737  0.73741388     0.04600
H1292       H  0.39128780  0.49945668  0.71077064     0.07800
H1293       H  0.34842320  0.52480252  0.73683461     0.07800
H1294       H  0.35886481  0.04495738  0.53228118     0.07800
H1295       H  0.37221982  0.60016552  0.53505303     0.07800
H1296       H  0.31959788  0.08320402  0.54454533     0.04500
C1297       C  0.39915592  0.91560572  0.61893025    -0.21300
C1298       C  0.40863490  0.90658354  0.57655438    -0.07800
C1299       C  0.41815147  0.86468059  0.56170455     0.13000
C1300       C  0.42619371  0.83469732  0.59055214    -0.21300
C1301       C  0.42438433  0.84610432  0.63364622    -0.07800
C1302       C  0.40652907  0.88545583  0.64802528     0.13000
C1303       C  0.89796824  0.89780646  0.69368863    -0.24700
H1304       H  0.89151455  0.94844486  0.62986866     0.14300
H1305       H  0.43648837  0.80321082  0.57925467     0.14400
C1306       C  0.42360035  0.85311569  0.51553483    -0.24600
H1307       H  0.88216422  0.92883247  0.69822046     0.04600
H1308       H  0.92660742  0.90015977  0.71110584     0.07800
H1309       H  0.87729438  0.87351182  0.70691090     0.07800
H1310       H  0.44875759  0.87215625  0.50179840     0.07800
H1311       H  0.39501108  0.85963792  0.49965549     0.07800
H1312       H  0.43089550  0.81875137  0.50927660     0.04500
C1313       C  0.05065970  0.62090608  0.89305430    -0.21300
C1314       C  0.03574968  0.58029413  0.87940256    -0.07800
C1315       C  0.52782717  0.57222174  0.83632244     0.13000
C1316       C  0.53085329  0.60640075  0.81001901    -0.21300
C1317       C  0.03953402  0.64782535  0.82626316    -0.07800
C1318       C  0.05182678  0.65468136  0.86761445     0.13000
C1319       C  0.06484022  0.69792159  0.88610343    -0.24700
H1320       H  0.05971747  0.62759906  0.92496765     0.14300
H1321       H  0.52366723  0.60114983  0.77735050     0.14400
C1322       C  0.51653438  0.52925474  0.81585972    -0.24600
H1323       H  0.07907298  0.69591708  0.91683971     0.04600
H1324       H  0.03795714  0.71883053  0.89117862     0.07800
H1325       H  0.08743889  0.71252455  0.86489002     0.07800
H1326       H  0.48621921  0.53100940  0.80190156     0.07800
H1327       H  0.51546088  0.50270809  0.83646864     0.07800
H1328       H  0.53932420  0.52056841  0.79054413     0.04500
C1329       C  0.84317594  0.40771918  0.34845119     0.85500
C1330       C  0.81916409  0.37301298  0.37111096    -0.54700
C1331       C  0.84160473  0.34415501  0.39097267     0.08500
C1332       C  0.88871185  0.35628839  0.38861629     0.19400
C1333       C  0.86822234  0.43063001  0.38190662    -0.55400
C1334       C  0.89149810  0.40584622  0.40499436     0.08600
C1335       C  0.87441200  0.38243898  0.32023568    -0.55000
C1336       C  0.89875495  0.35498857  0.33973486     0.09100
H1337       H  0.78634953  0.37236213  0.37271120     0.13700
H1338       H  0.90798154  0.33484137  0.40570688    -0.00600
H1339       H  0.86979971  0.46479635  0.38429810     0.14000
H1340       H  0.87609285  0.38496285  0.28665029     0.13700
C1341       C  0.65501795  0.09930088  0.14874840     0.85500
C1342       C  0.63242739  0.13688148  0.17237618    -0.54700
C1343       C  0.60743707  0.15975809  0.14882704     0.08500
C1344       C  0.60917019  0.14278663  0.10105731     0.19400
C1345       C  0.62039035  0.07242035  0.12697498    -0.55400
C1346       C  0.59588824  0.09405900  0.10125419     0.08600
C1347       C  0.67842944  0.11889540  0.11242746    -0.55000
C1348       C  0.65607612  0.14237581  0.08709946     0.09100
H1349       H  0.63419443  0.14314184  0.20593865     0.13700
H1350       H  0.59019494  0.16159086  0.08100262    -0.00600
H1351       H  0.61676231  0.03831533  0.13035979     0.14000
H1352       H  0.71096429  0.11490314  0.10747955     0.13700
O1353       O  0.53772807  0.44279920  0.43426115    -0.81100
O1354       O  0.96568132  0.44108065  0.05243620    -0.81100
O1355       O  0.58294084  0.49594337  0.51935907    -0.81100
O1356       O  0.90635692  0.46357414  0.45921185    -0.81100
O1357       O  0.54215766  0.45185941  0.04346242    -0.81200
O1358       O  0.95703561  0.42386779  0.43382901    -0.81100
O1359       O  0.90819131  0.47330975  0.04486200    -0.81100
O1360       O  0.57782947  0.49696042  0.45419131    -0.81100
C1361       C  0.57257564  0.46005351  0.43533168     1.08600
C1362       C  0.92772844  0.44197014  0.05584658     1.08500
C1363       C  0.57715420  0.46148560  0.03242757     1.08600
C1364       C  0.91929206  0.43012198  0.43648631     1.08500
O1365       O  0.94478812  0.01111880  0.41796702    -0.81100
O1366       O  0.54407101  0.03690956  0.08548543    -0.81200
O1367       O  0.53192474  0.06684823  0.45046367    -0.81100
O1368       O  0.93452645  0.56083984  0.04455230    -0.81100
O1369       O  0.95745900  0.52416226  0.09410975    -0.81100
O1370       O  0.01681965  0.01188896  0.40570524    -0.81100
O1371       O  0.94039975  0.05895461  0.46622827    -0.81100
O1372       O  0.56080544  0.07958289  0.03543427    -0.81100
Co1373     Co  0.98708487  0.97454536  0.44613267     1.51500
Co1374     Co  0.50186811  0.48981639  0.06456468     1.51700
Co1375     Co  0.54256824  0.03242273  0.49585991     1.51600
Co1376     Co  0.92819657  0.51337582  0.00277467     1.51500
O1377       O  0.98749328  0.50111974  0.50457952    -1.43000
C1378       C  0.93219290  0.04721408  0.43043931     1.08500
C1379       C  0.56414902  0.07006378  0.07310970     1.08600
C1380       C  0.52784228  0.05166346  0.41329359     1.08600
C1381       C  0.93399234  0.05191656  0.08234293     1.08500
O1382       O  0.81006509  0.27238941  0.40473602    -0.81100
O1383       O  0.75380904  0.20454176  0.08041493    -0.81100
O1384       O  0.80474097  0.30157153  0.02404986    -0.81100
O1385       O  0.76959519  0.13240294  0.46646329    -0.81100
O1386       O  0.76199361  0.29091414  0.07657928    -0.81200
O1387       O  0.79607454  0.18645205  0.43138279    -0.81100
O1388       O  0.79282627  0.19101496  0.02502353    -0.81100
O1389       O  0.80090852  0.32618439  0.45091266    -0.81100
C1390       C  0.81836170  0.31150665  0.41699043     1.08600
C1391       C  0.78752285  0.19247562  0.06410912     1.08500
C1392       C  0.79494994  0.30667100  0.06216553     1.08600
C1393       C  0.79487633  0.14622629  0.43940456     1.08500
O1394       O  0.72653665  0.21738660  0.40738990    -0.81100
O1395       O  0.68256809  0.29549989  0.04524193    -0.81200
O1396       O  0.72141862  0.32173552  0.44630981    -0.81100
O1397       O  0.71061207  0.15382155  0.03402830    -0.81100
O1398       O  0.67128518  0.20797193  0.05336325    -0.81100
O1399       O  0.72852650  0.26203406  0.40773256    -0.81100
O1400       O  0.70067605  0.17381572  0.45328589    -0.81100
O1401       O  0.72924569  0.34103583  0.52581847    -0.81100
Co1402     Co  0.77084084  0.24640369  0.44696932     1.51500
Co1403     Co  0.71819904  0.24919442  0.05955409     1.51700
Co1404     Co  0.75750207  0.29992050  0.48865242     1.51600
Co1405     Co  0.74633560  0.18326583  0.98890017     1.51500
O1406       O  0.73245142  0.24117895  0.49716000    -1.43000
C1407       C  0.70074163  0.18713307  0.41710647     1.08500
C1408       C  0.69432317  0.33299871  0.03723774     1.08600
C1409       C  0.71246376  0.29889729  0.41403703     1.08600
C1410       C  0.67883119  0.16854971  0.05464747     1.08500
O1411       O  0.54331784  0.29328553  0.31304405    -0.81100
O1412       O  0.96650764  0.28911603  0.14724765    -0.81100
O1413       O  0.55382596  0.30301192  0.22936152    -0.81100
O1414       O  0.91296508  0.31130965  0.27623605    -0.81100
O1415       O  0.54913572  0.28606183  0.16197982    -0.81200
O1416       O  0.95867667  0.30876007  0.32379493    -0.81100
O1417       O  0.93310668  0.31992300  0.20094038    -0.81100
O1418       O  0.59336536  0.25564609  0.28127882    -0.81100
C1419       C  0.58131230  0.28339773  0.30947690     1.08600
C1420       C  0.94257977  0.31774577  0.16283840     1.08500
C1421       C  0.55848434  0.31240681  0.19208612     1.08600
C1422       C  0.92509002  0.32330510  0.31242074     1.08500
O1423       O  0.94777972  0.22280461  0.31193437    -0.81100
O1424       O  0.54083096  0.19148393  0.15942447    -0.81200
O1425       O  0.54295017  0.18621710  0.26477523    -0.81100
O1426       O  0.90793244  0.23930646  0.18738489    -0.81100
O1427       O  0.95821359  0.19994321  0.15749230    -0.81100
O1428       O  0.01500290  0.21627464  0.32104659    -0.81100
O1429       O  0.90467830  0.22960393  0.26136765    -0.81100
O1430       O  0.58729196  0.21918249  0.19966980    -0.81100
Co1431     Co  0.99163443  0.26191435  0.29130836     1.51500
Co1432     Co  0.50368445  0.24193690  0.16218131     1.51700
Co1433     Co  0.54830613  0.24496483  0.24630073     1.51600
Co1434     Co  0.93783004  0.26992016  0.23197034     1.51500
O1435       O  0.99337074  0.24606155  0.22667766    -1.43000
C1436       C  0.91465488  0.21298190  0.29417941     1.08500
C1437       C  0.57742102  0.19238214  0.16988869     1.08600
C1438       C  0.53283497  0.18497951  0.30284218     1.08600
C1439       C  0.92069938  0.20827266  0.16324772     1.08500
O1440       O  0.79256704  0.46507547  0.34582181    -0.81100
O1441       O  0.76673350  0.02763423  0.17518293    -0.81100
O1442       O  0.79352821  0.44512502  0.20917900    -0.81100
O1443       O  0.75841965  0.09612919  0.28690193    -0.81100
O1444       O  0.74093513  0.45751655  0.17203662    -0.81200
O1445       O  0.79613746  0.05159559  0.32122451    -0.81100
O1446       O  0.78858534  0.06685290  0.22393548    -0.81100
O1447       O  0.81503084  0.43530870  0.28660336    -0.81100
C1448       C  0.81603808  0.43839171  0.32571121     1.08600
C1449       C  0.79433157  0.05132652  0.18852609     1.08500
C1450       C  0.77580363  0.44047593  0.17538634     1.08600
C1451       C  0.79026125  0.08827340  0.30748989     1.08500
O1452       O  0.71143355  0.05785105  0.33170592    -0.81100
O1453       O  0.67414090  0.47537073  0.23474813    -0.81200
O1454       O  0.73124424  0.41425859  0.31115898    -0.81100
O1455       O  0.70561671  0.09316502  0.20567716    -0.81100
O1456       O  0.68537217  0.03324375  0.17095803    -0.81100
O1457       O  0.70706958  0.47538909  0.33835753    -0.81100
O1458       O  0.67946943  0.05004878  0.27326932    -0.81100
O1459       O  0.71064289  0.41714754  0.22988891    -0.81100
Co1460     Co  0.75093374  0.01124228  0.32911151     1.51500
Co1461     Co  0.72139506  0.50674165  0.21205948     1.51700
Co1462     Co  0.76225837  0.43235423  0.25925140     1.51600
Co1463     Co  0.73351688  0.05328898  0.24459102     1.51500
O1464       O  0.75422983  0.49717620  0.26601840    -1.43000
C1465       C  0.68043294  0.06386759  0.31085987     1.08500
C1466       C  0.67685432  0.43556396  0.22672512     1.08600
C1467       C  0.70692901  0.43555440  0.33580207     1.08600
C1468       C  0.68340640  0.07428619  0.17656040     1.08500
C1469       C  0.84745485  0.19380009  0.32092407    -0.21300
C1470       C  0.88696701  0.18062028  0.30967733    -0.07800
C1471       C  0.89489259  0.13683252  0.30087982     0.13000
C1472       C  0.86309869  0.10720175  0.30465856    -0.21300
C1473       C  0.82290478  0.12064978  0.31201389    -0.07800
C1474       C  0.81513972  0.16439701  0.32067774     0.13000
C1475       C  0.77294484  0.18030352  0.32890404    -0.24700
H1476       H  0.84135855  0.22770449  0.32606485     0.14300
H1477       H  0.86931271  0.07348748  0.29932079     0.14400
C1478       C  0.93509659  0.12106819  0.28271456    -0.24600
H1479       H  0.77325561  0.21473250  0.33915057     0.04600
H1480       H  0.75814860  0.16202113  0.35377486     0.07800
H1481       H  0.75538277  0.17611604  0.29997408     0.07800
H1482       H  0.95931710  0.14560202  0.28553997     0.07800
H1483       H  0.93219901  0.11209453  0.24897940     0.07800
H1484       H  0.94465464  0.09286584  0.29898971     0.04500
C1485       C  0.61772280  0.34978697  0.16496120    -0.21300
C1486       C  0.58008044  0.35271389  0.18588815    -0.07800
C1487       C  0.57132500  0.38892281  0.21313655     0.13000
C1488       C  0.60294960  0.41712347  0.22493163    -0.21300
C1489       C  0.64261583  0.41032380  0.20875007    -0.07800
C1490       C  0.64924992  0.37811295  0.17600016     0.13000
C1491       C  0.68927188  0.37285527  0.15231906    -0.24700
H1492       H  0.62387023  0.32253313  0.14325438     0.14300
H1493       H  0.59698586  0.44300706  0.24825977     0.14400
C1494       C  0.52895910  0.39711153  0.23099535    -0.24600
H1495       H  0.68780694  0.34765690  0.12654761     0.04600
H1496       H  0.71348260  0.36345221  0.17301495     0.07800
H1497       H  0.69702051  0.40324260  0.13820336     0.07800
H1498       H  0.52821025  0.39537458  0.26532283     0.07800
H1499       H  0.50651597  0.37367100  0.21784356     0.07800
H1500       H  0.51918187  0.42944440  0.22338751     0.04500
C1501       C  0.81251856  0.38213440  0.07475349    -0.21300
C1502       C  0.81397656  0.34038012  0.08866222    -0.07800
C1503       C  0.81394910  0.33491288  0.13177162     0.13000
C1504       C  0.80214182  0.36879977  0.15933998    -0.21300
C1505       C  0.79330954  0.40882501  0.14473108    -0.07800
C1506       C  0.80333127  0.41704685  0.10307685     0.13000
C1507       C  0.80442093  0.46199778  0.08899023    -0.24700
H1508       H  0.81445200  0.38690377  0.04157483     0.14300
H1509       H  0.79802589  0.36331345  0.19227352     0.14400
C1510       C  0.82245182  0.29241952  0.14876062    -0.24600
H1511       H  0.81124038  0.46260123  0.05490435     0.04600
H1512       H  0.82856957  0.48039215  0.10567140     0.07800
H1513       H  0.77501487  0.47809876  0.09636895     0.07800
H1514       H  0.83246512  0.26870358  0.12355273     0.08600
H1515       H  0.79471012  0.28022217  0.16488627     0.07800
H1516       H  0.84722730  0.29622097  0.17140457     0.04500
C1517       C  0.65493317  0.12488939  0.40112653    -0.21300
C1518       C  0.67310770  0.16275122  0.38720080    -0.07800
C1519       C  0.66917023  0.17021931  0.34451804     0.13000
C1520       C  0.65761123  0.13648736  0.31618419    -0.21300
C1521       C  0.65189214  0.09531969  0.32997565    -0.07800
C1522       C  0.64379434  0.09141118  0.37284132     0.13000
C1523       C  0.63370759  0.04868498  0.38943753    -0.24700
H1524       H  0.65353099  0.11889611  0.43404586     0.14300
H1525       H  0.66017713  0.14068970  0.28291681     0.14400
C1526       C  0.67452117  0.21353018  0.32922346    -0.24600
H1527       H  0.60962875  0.05304325  0.41397561     0.04600
H1528       H  0.66091426  0.03553834  0.40356377     0.07800
H1529       H  0.62284445  0.02557479  0.36447038     0.07800
H1530       H  0.70563362  0.22531339  0.33361889     0.07800
H1531       H  0.65307636  0.23401606  0.34801557     0.07800
H1532       H  0.66757510  0.21467649  0.29566771     0.04500
C1533       C  0.64092807  0.31459149  0.40543682    -0.21300
C1534       C  0.68009464  0.31177274  0.38723983    -0.07800
C1535       C  0.68545672  0.31213037  0.34349603     0.13000
C1536       C  0.65103285  0.30973167  0.31883574    -0.21300
C1537       C  0.61189917  0.30419663  0.33689311    -0.07800
C1538       C  0.60644665  0.31000633  0.38100858     0.13000
C1539       C  0.56601371  0.30881322  0.40448567    -0.24700
H1540       H  0.63716619  0.31563125  0.43919737     0.14300
H1541       H  0.65509887  0.30731023  0.28510112     0.14400
C1542       C  0.72707492  0.31197558  0.32248446    -0.24600
H1543       H  0.56608471  0.28320322  0.42686728     0.04600
H1544       H  0.53946448  0.30361987  0.38471635     0.07800
H1545       H  0.56163963  0.33967561  0.42277618     0.07800
H1546       H  0.74540006  0.28484622  0.33153279     0.07800
H1547       H  0.74309825  0.34173472  0.33181287     0.07800
H1548       H  0.72542122  0.31004070  0.28790150     0.04500
C1549       C  0.86042597  0.17940619  0.07124334    -0.21300
C1550       C  0.82143068  0.18202828  0.09045667    -0.07800
C1551       C  0.81712242  0.17897748  0.13435242     0.13000
C1552       C  0.85209930  0.17961935  0.15780048    -0.21300
C1553       C  0.89051263  0.18462804  0.13869745    -0.07800
C1554       C  0.89522457  0.18013912  0.09489750     0.13000
C1555       C  0.93644630  0.17985061  0.07284311    -0.24700
H1556       H  0.86404774  0.17978621  0.03757629     0.14300
H1557       H  0.84926590  0.18135530  0.19164852     0.14400
C1558       C  0.77654815  0.17734790  0.15750722    -0.24600
H1559       H  0.93400516  0.17486180  0.03843274     0.04600
H1560       H  0.95481653  0.15334691  0.08357311     0.07800
H1561       H  0.95243855  0.21080350  0.07937908     0.07800
H1562       H  0.75855107  0.14994822  0.14461447     0.07800
H1563       H  0.75982423  0.20761341  0.15535559     0.07800
H1564       H  0.77998966  0.17279108  0.19127731     0.04500
C1565       C  0.85998916  0.04868298  0.41817978    -0.21300
C1566       C  0.89812819  0.06813853  0.41200563    -0.07800
C1567       C  0.90022948  0.11198621  0.40510070     0.13000
C1568       C  0.86455823  0.13619776  0.40910241    -0.21300
C1569       C  0.82702516  0.11752170  0.42079985    -0.07800
C1570       C  0.82423955  0.07252077  0.42188748     0.13000
C1571       C  0.78456396  0.04931204  0.43003641    -0.24700
H1572       H  0.85849249  0.01607947  0.42719033     0.14300
H1573       H  0.86696109  0.17052468  0.40714354     0.14400
C1574       C  0.94056045  0.13381681  0.39734008    -0.24600
H1575       H  0.78797361  0.01416563  0.42452364     0.04600
H1576       H  0.76120573  0.05967678  0.40866360     0.07800
H1577       H  0.77394293  0.05533456  0.46299732     0.07800
H1578       H  0.95607375  0.11817504  0.36943082     0.07800
H1579       H  0.96049464  0.13200191  0.92406412     0.07800
H1580       H  0.93687412  0.16816365  0.39175278     0.04500
C1581       C  0.64638685  0.44074069  0.04053307    -0.21300
C1582       C  0.60660489  0.42828047  0.03276922    -0.07800
C1583       C  0.59532127  0.38434658  0.02740083     0.13000
C1584       C  0.62516896  0.35426775  0.02982517    -0.21300
C1585       C  0.66512758  0.36671892  0.03741871    -0.07800
C1586       C  0.67629189  0.41041116  0.04191711     0.13000
C1587       C  0.71895631  0.42583946  0.04916544    -0.24700
H1588       H  0.65409474  0.47443551  0.04507793     0.14300
H1589       H  0.61695914  0.31932995  0.52211368     0.14400
C1590       C  0.55233353  0.36677423  0.51319636    -0.24600
H1591       H  0.72050007  0.46110160  0.05486362     0.04600
H1592       H  0.73665651  0.41925090  0.52498214     0.07800
H1593       H  0.73003000  0.41099252  0.07682544     0.07800
H1594       H  0.54166453  0.38310438  0.48598819     0.07800
H1595       H  0.53207567  0.37570788  0.04699544     0.07800
H1596       H  0.55188366  0.33186625  0.50470695     0.04500
C1597       C  0.64549752  0.44137043  0.43041485    -0.21300
C1598       C  0.60712790  0.43813017  0.41292031    -0.07800
C1599       C  0.59858814  0.91827450  0.37646816     0.13000
C1600       C  0.63307064  0.91047953  0.34978747    -0.21300
C1601       C  0.67741443  0.41655083  0.36426640    -0.07800
C1602       C  0.68047894  0.42911113  0.40709593     0.13000
C1603       C  0.72092681  0.43531431  0.42730651    -0.24700
H1604       H  0.64865938  0.45633273  0.46137797     0.14300
H1605       H  0.62902630  0.90315513  0.31671098     0.14400
C1606       C  0.55683299  0.91229130  0.35910257    -0.24600
H1607       H  0.72217013  0.41447957  0.45389676     0.04600
H1608       H  0.72464507  0.46918592  0.43893801     0.07800
H1609       H  0.74666748  0.42677066  0.40543115     0.07800
H1610       H  0.54120518  0.94337470  0.35936348     0.07800
H1611       H  0.53832330  0.89053762  0.37813278     0.07800
H1612       H  0.55846664  0.89810381  0.32661955     0.04500
C1613       C  0.90394835  0.05842671  0.15292380    -0.21300
C1614       C  0.89973019  0.06531399  0.11051001    -0.07800
C1615       C  0.86035718  0.07232784  0.09527735     0.13000
C1616       C  0.82677972  0.07167240  0.12308279    -0.21300
C1617       C  0.83107890  0.05981346  0.16394929    -0.07800
C1618       C  0.86997230  0.05201559  0.17883466     0.13000
C1619       C  0.87685819  0.03089488  0.21892526    -0.24700
H1620       H  0.93375193  0.05193169  0.16451790     0.14300
H1621       H  0.79649800  0.07657333  0.11191107     0.14400
C1622       C  0.85198232  0.57481916  0.04898621    -0.24600
H1623       H  0.89816863  0.05032532  0.23809670     0.04600
H1624       H  0.89151229  0.99961426  0.21144055     0.07800
H1625       H  0.84874970  0.02500316  0.23766825     0.07800
H1626       H  0.85940562  0.54385025  0.03195920     0.07800
H1627       H  0.87076696  0.10083325  0.03590557     0.07800
H1628       H  0.81948219  0.58143683  0.04371436     0.04500
C1629       C  0.89971523  0.41702157  0.12006730    -0.21300
C1630       C  0.90858710  0.40768652  0.07760919    -0.07800
C1631       C  0.91747715  0.36559411  0.06288820     0.13000
C1632       C  0.92569651  0.33568707  0.09178328    -0.21300
C1633       C  0.92450307  0.34730331  0.13484188    -0.07800
C1634       C  0.90712535  0.38691293  0.14922683     0.13000
C1635       C  0.39803981  0.39807607  0.19413226    -0.24700
H1636       H  0.39242106  0.44859418  0.13004542     0.14300
H1637       H  0.93554509  0.30403333  0.08051476     0.14400
C1638       C  0.92189469  0.35367103  0.01670800    -0.24600
H1639       H  0.38260023  0.42932139  0.19846524     0.04600
H1640       H  0.42653025  0.40008518  0.21181208     0.07800
H1641       H  0.37696683  0.37406101  0.20723771     0.07800
H1642       H  0.94695670  0.37233651  0.00231697     0.07800
H1643       H  0.89303578  0.36042121  0.00141555     0.07800
H1644       H  0.92873147  0.31919171  0.01052615     0.04500
C1645       C  0.55019367  0.12236484  0.39457809    -0.21300
C1646       C  0.53629629  0.08160862  0.38045774    -0.07800
C1647       C  0.02866078  0.07221347  0.33580286     0.13000
C1648       C  0.03178947  0.10657955  0.30972912    -0.21300
C1649       C  0.54105657  0.14856653  0.32705062    -0.07800
C1650       C  0.55204445  0.15588751  0.36888113     0.13000
C1651       C  0.56416813  0.19931873  0.38768249    -0.24700
H1652       H  0.55793793  0.12923073  0.42687374     0.14300
H1653       H  0.02433692  0.10163487  0.27710282     0.14400
C1654       C  0.01675525  0.02954265  0.31512437    -0.24600
H1655       H  0.57783768  0.19745474  0.41871906     0.04600
H1656       H  0.53697680  0.21986086  0.39232876     0.07800
H1657       H  0.58703011  0.21426382  0.36699194     0.07800
H1658       H  0.98661706  0.03195304  0.30093371     0.07800
H1659       H  0.01487973  0.00297464  0.33568486     0.07800
H1660       H  0.03956807  0.02049596  0.28993739     0.04500
C1661       C  0.84179966  0.40767976  0.84681336     0.85500
C1662       C  0.81844054  0.37349118  0.87068446    -0.54700
C1663       C  0.84144602  0.34465804  0.88989586     0.08500
C1664       C  0.88868808  0.35647145  0.88566372     0.19400
C1665       C  0.86810799  0.43084047  0.87900972    -0.55400
C1666       C  0.89273324  0.40613102  0.90066719     0.08600
C1667       C  0.87210784  0.38172183  0.81775499    -0.55000
C1668       C  0.89717714  0.35461700  0.83685977     0.09100
H1669       H  0.78564289  0.37295069  0.87332098     0.13700
H1670       H  0.90856258  0.33520081  0.90227217    -0.00600
H1671       H  0.86990687  0.46525823  0.88120990     0.14000
H1672       H  0.87292312  0.38386851  0.78413205     0.13700
C1673       C  0.65482515  0.09935055  0.64901568     0.85500
C1674       C  0.63231929  0.13706446  0.67254454    -0.54700
C1675       C  0.60737629  0.15990284  0.64890194     0.08500
C1676       C  0.60906809  0.14277465  0.60121087     0.19400
C1677       C  0.62012784  0.07248337  0.62734692    -0.55400
C1678       C  0.59565373  0.09411715  0.60159759     0.08600
C1679       C  0.67826596  0.11875020  0.61263018    -0.55000
C1680       C  0.65595679  0.14219355  0.58726303     0.09100
H1681       H  0.63406259  0.14340604  0.70609790     0.13700
H1682       H  0.59014427  0.16156140  0.58109016    -0.00600
H1683       H  0.61642349  0.03840319  0.63083201     0.14000
H1684       H  0.71079538  0.11470593  0.60769862     0.13700
O1685       O  0.53763764  0.44089804  0.94993647    -0.81100
O1686       O  0.96446068  0.43891820  0.55189415    -0.81100
O1687       O  0.58567203  0.49815560  0.01987491    -0.81100
O1688       O  0.91365182  0.45895249  0.95749809    -0.81100
O1689       O  0.54007489  0.44900543  0.54334786    -0.81200
O1690       O  0.96163468  0.43054663  0.91211830    -0.81100
O1691       O  0.90735303  0.47325162  0.54610151    -0.81100
O1692       O  0.57746575  0.49837210  0.95279785    -0.81100
C1693       C  0.57142450  0.45918717  0.94077546     1.08600
C1694       C  0.92648523  0.44071538  0.55550635     1.08500
C1695       C  0.57482802  0.45906445  0.53148799     1.08600
C1696       C  0.92478186  0.43059783  0.92653682     1.08500
O1697       O  0.94522215  0.01159495  0.91827678    -0.81100
O1698       O  0.54375232  0.03702591  0.58592632    -0.81200
O1699       O  0.53212699  0.06656491  0.94960640    -0.81100
O1700       O  0.93722722  0.56001621  0.54479888    -0.81100
O1701       O  0.95772572  0.52140369  0.59409932    -0.81100
O1702       O  0.01651180  0.01264506  0.90637091    -0.81100
O1703       O  0.94063885  0.05962473  0.96635443    -0.81100
O1704       O  0.56038225  0.07976012  0.53593931    -0.81100
Co1705     Co  0.98720636  0.97488475  0.94672865     1.51500
Co1706     Co  0.50022124  0.48740223  0.56509111     1.51700
Co1707     Co  0.54284305  0.03235353  0.99521914     1.51600
Co1708     Co  0.92650098  0.51316398  0.50319360     1.51500
O1709       O  0.98990810  0.50578198  0.00468848    -1.43000
C1710       C  0.93260487  0.04773910  0.93054572     1.08500
C1711       C  0.56380959  0.07019615  0.57356700     1.08600
C1712       C  0.52759973  0.05098478  0.91260452     1.08600
C1713       C  0.93358318  0.05140546  0.58210071     1.08500
O1714       O  0.81007210  0.27269179  0.90388052    -0.81100
O1715       O  0.75389883  0.20448147  0.58055066    -0.81100
O1716       O  0.80444767  0.30130812  0.52401450    -0.81100
O1717       O  0.76990452  0.13248335  0.96624531    -0.81100
O1718       O  0.76180735  0.29091034  0.57665625    -0.81200
O1719       O  0.79625886  0.18655589  0.93103670    -0.81100
O1720       O  0.79265355  0.19110746  0.52495373    -0.81100
O1721       O  0.80139975  0.32630438  0.95028888    -0.81100
C1722       C  0.81859259  0.31177067  0.91616803     1.08600
C1723       C  0.78754729  0.19248749  0.56404055     1.08500
C1724       C  0.79478280  0.30654035  0.56212306     1.08600
C1725       C  0.79514263  0.14632858  0.93914743     1.08500
O1726       O  0.72655316  0.21761586  0.90702588    -0.81100
O1727       O  0.68206876  0.29506195  0.54581498    -0.81200
O1728       O  0.72131174  0.32182991  0.94635283    -0.81100
O1729       O  0.71051941  0.15371537  0.53428369    -0.81100
O1730       O  0.67120186  0.20779772  0.55379684    -0.81100
O1731       O  0.72829833  0.26230280  0.90751564    -0.81100
O1732       O  0.70103246  0.17388784  0.95296945    -0.81100
O1733       O  0.73018904  0.34102243  0.02542139    -0.81100
Co1734     Co  0.77100059  0.24661031  0.94637765     1.51500
Co1735     Co  0.71804046  0.24902594  0.55989886     1.51700
Co1736     Co  0.75810513  0.29991588  0.98817125     1.51600
Co1737     Co  0.74603107  0.18323178  0.48908354     1.51500
O1738       O  0.73290212  0.24125521  0.99684087    -1.43000
C1739       C  0.70087435  0.18730361  0.91683210     1.08500
C1740       C  0.69343666  0.33261390  0.53771155     1.08600
C1741       C  0.71207679  0.29906250  0.91410266     1.08600
C1742       C  0.67874802  0.16839064  0.55493301     1.08500
O1743       O  0.54237062  0.29319735  0.81313103    -0.81100
O1744       O  0.96650689  0.28795624  0.64633232    -0.81100
O1745       O  0.55291350  0.30316565  0.72900723    -0.81100
O1746       O  0.91198866  0.31063854  0.77401406    -0.81100
O1747       O  0.54852946  0.28597296  0.66160001    -0.81200
O1748       O  0.95773795  0.30947582  0.82173279    -0.81100
O1749       O  0.93440990  0.31971065  0.70025490    -0.81100
O1750       O  0.59268803  0.25614004  0.78119447    -0.81100
C1751       C  0.58045878  0.28361765  0.80958360     1.08600
C1752       C  0.94310794  0.31700907  0.66201148     1.08500
C1753       C  0.55756581  0.31245552  0.69168957     1.08600
C1754       C  0.92398537  0.32333028  0.80997313     1.08500
O1755       O  0.94727586  0.22362430  0.81180460    -0.81100
O1756       O  0.54075111  0.19149293  0.65902914    -0.81200
O1757       O  0.54261906  0.18638090  0.76448302    -0.81100
O1758       O  0.90809144  0.23885981  0.68603178    -0.81100
O1759       O  0.95841148  0.19892662  0.65716817    -0.81100
O1760       O  0.01415060  0.21659520  0.82081021    -0.81100
O1761       O  0.90473776  0.22912589  0.76050506    -0.81100
O1762       O  0.58694626  0.21940083  0.69953942    -0.81100
Co1763     Co  0.99125671  0.26222991  0.79063540     1.51500
Co1764     Co  0.50337269  0.24169947  0.66147568     1.51700
Co1765     Co  0.54774378  0.24510850  0.74600962     1.51600
Co1766     Co  0.93781541  0.26922270  0.73074677     1.51500
O1767       O  0.99331871  0.24545658  0.72620737    -1.43000
C1768       C  0.91439732  0.21328850  0.79382059     1.08500
C1769       C  0.57725925  0.19250407  0.66975860     1.08600
C1770       C  0.53196226  0.18487742  0.80238238     1.08600
C1771       C  0.92091029  0.20746015  0.66246446     1.08500
O1772       O  0.79031465  0.46443696  0.84487980    -0.81100
O1773       O  0.76663962  0.02804369  0.67522955    -0.81100
O1774       O  0.79205496  0.44506271  0.70817483    -0.81100
O1775       O  0.75826977  0.09637856  0.78701665    -0.81100
O1776       O  0.73969481  0.45787439  0.67086887    -0.81200
O1777       O  0.79619548  0.05196398  0.82125099    -0.81100
O1778       O  0.78858703  0.06722952  0.72396980    -0.81100
O1779       O  0.81322517  0.43554758  0.78554996    -0.81100
C1780       C  0.81412422  0.43819624  0.82459672     1.08600
C1781       C  0.79426242  0.05173049  0.68854205     1.08500
C1782       C  0.77445725  0.44069833  0.67423273     1.08600
C1783       C  0.79015556  0.08863354  0.80756495     1.08500
O1784       O  0.71148091  0.05776736  0.83178516    -0.81100
O1785       O  0.67299083  0.47569217  0.73353680    -0.81200
O1786       O  0.72869364  0.41456243  0.81037580    -0.81100
O1787       O  0.70550614  0.09331057  0.70584492    -0.81100
O1788       O  0.68523736  0.03334467  0.67120811    -0.81100
O1789       O  0.70430688  0.47587716  0.83645728    -0.81100
O1790       O  0.67956627  0.05002822  0.77331138    -0.81100
O1791       O  0.70939682  0.41746994  0.72882983    -0.81100
Co1792     Co  0.75121221  0.01135131  0.82906530     1.51500
Co1793     Co  0.72041229  0.50699660  0.71100765     1.51700
Co1794     Co  0.76055482  0.43250986  0.75834000     1.51600
Co1795     Co  0.73358420  0.05348224  0.74464509     1.51500
O1796       O  0.75298812  0.49733053  0.76499517    -1.43000
C1797       C  0.68051635  0.06385127  0.81089861     1.08500
C1798       C  0.67570166  0.43585603  0.72560524     1.08600
C1799       C  0.70365241  0.43606150  0.83421935     1.08600
C1800       C  0.68323227  0.07438434  0.67681304     1.08500
C1801       C  0.84721567  0.19427827  0.82072245    -0.21300
C1802       C  0.88673333  0.18107024  0.80955299    -0.07800
C1803       C  0.89465957  0.13728401  0.80080150     0.13000
C1804       C  0.86290583  0.10765430  0.80465431    -0.21300
C1805       C  0.82271804  0.12108811  0.81200781    -0.07800
C1806       C  0.81491002  0.16485854  0.82049339     0.13000
C1807       C  0.77268876  0.18077117  0.82847072    -0.24700
H1808       H  0.84110678  0.22819313  0.82571055     0.14300
H1809       H  0.86914721  0.07394338  0.79931305     0.14400
C1810       C  0.93478439  0.12154285  0.78242827    -0.24600
H1811       H  0.77294283  0.21524121  0.83857349     0.04600
H1812       H  0.75782009  0.16256194  0.85334672     0.07800
H1813       H  0.75523842  0.17644944  0.79947570     0.07800
H1814       H  0.95903628  0.14602174  0.78540575     0.07800
H1815       H  0.93178903  0.11288430  0.74864332     0.07800
H1816       H  0.94432663  0.09314869  0.79842502     0.04500
C1817       C  0.61703163  0.34906448  0.66487795    -0.21300
C1818       C  0.57920904  0.35260582  0.68529815    -0.07800
C1819       C  0.57036683  0.38921193  0.71198382     0.13000
C1820       C  0.60188206  0.41772738  0.72324469    -0.21300
C1821       C  0.64165892  0.41035605  0.70775391    -0.07800
C1822       C  0.64866538  0.37705928  0.67611728     0.13000
C1823       C  0.68932375  0.36988954  0.65416813    -0.24700
H1824       H  0.62329949  0.32129714  0.64385555     0.14300
H1825       H  0.59579064  0.44414562  0.74594483     0.14400
C1826       C  0.52814573  0.39747071  0.73012321    -0.24600
H1827       H  0.68800022  0.34458885  0.62846114     0.04600
H1828       H  0.71218332  0.35971672  0.67604540     0.07800
H1829       H  0.69882284  0.39979410  0.64027749     0.07800
H1830       H  0.52799175  0.39662361  0.76455646     0.07800
H1831       H  0.50571027  0.37355872  0.71781704     0.07800
H1832       H  0.51803699  0.42948087  0.72187690     0.04500
C1833       C  0.81314960  0.38183469  0.57420554    -0.21300
C1834       C  0.81402695  0.34020782  0.58847302    -0.07800
C1835       C  0.81314512  0.33512440  0.63162774     0.13000
C1836       C  0.80051214  0.36910777  0.65860910    -0.21300
C1837       C  0.79183315  0.40899238  0.64351683    -0.07800
C1838       C  0.80294365  0.41694030  0.60187344     0.13000
C1839       C  0.80485183  0.46137328  0.58634070    -0.24700
H1840       H  0.81602657  0.38640716  0.54101882     0.14300
H1841       H  0.79580189  0.36381182  0.69152548     0.14400
C1842       C  0.82143498  0.29282943  0.64916610    -0.24600
H1843       H  0.78929365  0.46279250  0.55642730     0.04600
H1844       H  0.83699664  0.47063562  0.58064426     0.07800
H1845       H  0.79115527  0.48541881  0.60901225     0.07800
H1846       H  0.83191433  0.26892689  0.62432322     0.08600
H1847       H  0.79344662  0.28067306  0.66487866     0.07800
H1848       H  0.84579326  0.29690399  0.67226616     0.04500
C1849       C  0.65494163  0.12514683  0.90105476    -0.21300
C1850       C  0.67308239  0.16298861  0.88704684    -0.07800
C1851       C  0.66909281  0.17039164  0.84435060     0.13000
C1852       C  0.65767446  0.13653592  0.81607444    -0.21300
C1853       C  0.65201959  0.09538551  0.82996740    -0.07800
C1854       C  0.64392374  0.09156660  0.87284090     0.13000
C1855       C  0.63383607  0.04888961  0.88954375    -0.24700
H1856       H  0.65352257  0.11923963  0.93399434     0.14300
H1857       H  0.66024365  0.14066406  0.78279566     0.14400
C1858       C  0.67424175  0.21373442  0.82898074    -0.24600
H1859       H  0.60959574  0.05329341  0.91390708     0.04600
H1860       H  0.66097843  0.03589013  0.90391370     0.07800
H1861       H  0.62318027  0.02564015  0.86459169     0.07800
H1862       H  0.70529749  0.22571648  0.83335536     0.07800
H1863       H  0.65270839  0.23419737  0.84769036     0.07800
H1864       H  0.66728118  0.21476723  0.79541803     0.04500
C1865       C  0.64022770  0.31430007  0.90579425    -0.21300
C1866       C  0.67940148  0.31191134  0.88752540    -0.07800
C1867       C  0.68460003  0.31271263  0.84378847     0.13000
C1868       C  0.65010646  0.31038850  0.81918245    -0.21300
C1869       C  0.61100633  0.30445601  0.83720754    -0.07800
C1870       C  0.60566909  0.30986360  0.88138550     0.13000
C1871       C  0.56527997  0.30837424  0.90492061    -0.24700
H1872       H  0.63653798  0.31501728  0.93955495     0.14300
H1873       H  0.65412891  0.30827598  0.78544227     0.14400
C1874       C  0.72617516  0.31291155  0.82269223    -0.24600
H1875       H  0.56522398  0.28207094  0.92652870     0.04600
H1876       H  0.53870356  0.30404611  0.88503476     0.07800
H1877       H  0.56114204  0.33872784  0.92418648     0.07800
H1878       H  0.74459163  0.28569761  0.83139219     0.07800
H1879       H  0.74213459  0.34264348  0.83231566     0.07800
H1880       H  0.72444780  0.31135054  0.78811969     0.04500
C1881       C  0.86051128  0.17949743  0.57069077    -0.21300
C1882       C  0.82159337  0.18193447  0.59011995    -0.07800
C1883       C  0.81745944  0.17842942  0.63396275     0.13000
C1884       C  0.85253541  0.17857058  0.65720127    -0.21300
C1885       C  0.89085769  0.18372117  0.63797020    -0.07800
C1886       C  0.89540401  0.17989566  0.59416254     0.13000
C1887       C  0.93657041  0.18008132  0.57200694    -0.24700
H1888       H  0.86399867  0.18027295  0.53704312     0.14300
H1889       H  0.84987154  0.17993876  0.69105492     0.14400
C1890       C  0.77698194  0.17677415  0.65729340    -0.24600
H1891       H  0.93404119  0.17569249  0.53756607     0.04600
H1892       H  0.95504575  0.15341632  0.58223915     0.07800
H1893       H  0.95250898  0.21097805  0.57901716     0.07800
H1894       H  0.75881354  0.14958450  0.64424338     0.07800
H1895       H  0.76037580  0.20716492  0.65549760     0.07800
H1896       H  0.78055040  0.17186181  0.69097731     0.04500
C1897       C  0.86051606  0.04890093  0.91806066    -0.21300
C1898       C  0.89858438  0.06847015  0.91185257    -0.07800
C1899       C  0.90054294  0.11228656  0.90480249     0.13000
C1900       C  0.86480332  0.13638490  0.90876247    -0.21300
C1901       C  0.82734784  0.11764066  0.92060281    -0.07800
C1902       C  0.82471448  0.07263495  0.92187633     0.13000
C1903       C  0.78519527  0.04930564  0.93045270    -0.24700
H1904       H  0.85914134  0.01631684  0.92714449     0.14300
H1905       H  0.86709930  0.17070032  0.90666460     0.14400
C1906       C  0.94077905  0.13421575  0.89688641    -0.24600
H1907       H  0.78871534  0.01415402  0.92510626     0.04600
H1908       H  0.76161895  0.05942802  0.90920673     0.07800
H1909       H  0.77481640  0.05546774  0.96347346     0.07800
H1910       H  0.95616598  0.11862396  0.86889045     0.07800
H1911       H  0.96015182  0.13157282  0.42461118     0.07800
H1912       H  0.93699378  0.16855681  0.89133269     0.04500
C1913       C  0.64404003  0.43955623  0.54173458    -0.21300
C1914       C  0.60487258  0.42663516  0.53174463    -0.07800
C1915       C  0.59440485  0.38283287  0.52458462     0.13000
C1916       C  0.62431221  0.35295843  0.52795383    -0.21300
C1917       C  0.66374990  0.36581735  0.53769822    -0.07800
C1918       C  0.67413343  0.40954639  0.54386565     0.13000
C1919       C  0.71631068  0.42520561  0.55288189    -0.24700
H1920       H  0.65111180  0.47328002  0.54745887     0.14300
H1921       H  0.61724579  0.32064858  0.02517773     0.14400
C1922       C  0.55253723  0.36782208  0.01951008    -0.24600
H1923       H  0.71711256  0.46004836  0.56166478     0.04600
H1924       H  0.73921241  0.41749799  0.02169332     0.07800
H1925       H  0.72788008  0.40823388  0.57902099     0.07800
H1926       H  0.54049374  0.38102752  0.99142059     0.07800
H1927       H  0.53058094  0.37220232  0.54011594     0.07800
H1928       H  0.55141046  0.33248040  0.01399548     0.04500
C1929       C  0.64415991  0.44081125  0.93145381    -0.21300
C1930       C  0.60477186  0.43634978  0.91646638    -0.07800
C1931       C  0.59947890  0.91703523  0.87638236     0.13000
C1932       C  0.63412708  0.90935202  0.84988294    -0.21300
C1933       C  0.67393657  0.41773615  0.86356724    -0.07800
C1934       C  0.67844000  0.42986645  0.90632809     0.13000
C1935       C  0.71957722  0.43681713  0.92495805    -0.24700
H1936       H  0.64862446  0.45618010  0.96196834     0.14300
H1937       H  0.63024941  0.90144186  0.81687352     0.14400
C1938       C  0.55791948  0.90991561  0.85897555    -0.24600
H1939       H  0.72206296  0.41628480  0.95163462     0.04600
H1940       H  0.72329248  0.47084148  0.93612134     0.07800
H1941       H  0.74467961  0.42827012  0.90233002     0.07800
H1942       H  0.54216881  0.94078402  0.85805676     0.07800
H1943       H  0.53951743  0.88873030  0.87871375     0.07800
H1944       H  0.55985792  0.89453448  0.82696160     0.04500
C1945       C  0.90382131  0.05849931  0.65274207    -0.21300
C1946       C  0.89951253  0.06519201  0.61030607    -0.07800
C1947       C  0.86014818  0.07236900  0.59514427     0.13000
C1948       C  0.82662807  0.07188356  0.62302013    -0.21300
C1949       C  0.83098162  0.06016585  0.66392241    -0.07800
C1950       C  0.86988653  0.05232808  0.67876778     0.13000
C1951       C  0.87680578  0.03134173  0.71892706    -0.24700
H1952       H  0.93363235  0.05192252  0.66427421     0.14300
H1953       H  0.79633724  0.07682717  0.61189290     0.14400
C1954       C  0.85409350  0.57455194  0.54839233    -0.24600
H1955       H  0.89820769  0.05077400  0.73799085     0.04600
H1956       H  0.89134326  0.99998672  0.71151489     0.07800
H1957       H  0.84872783  0.02560016  0.73776421     0.07800
H1958       H  0.86135146  0.54370449  0.53108037     0.07800
H1959       H  0.87059872  0.10077477  0.53572899     0.07800
H1960       H  0.82180296  0.58176497  0.54271502     0.04500
C1961       C  0.89813617  0.41523003  0.61917698    -0.21300
C1962       C  0.90725349  0.40613101  0.57673973    -0.07800
C1963       C  0.91700504  0.36416173  0.56205842     0.13000
C1964       C  0.92586787  0.33452491  0.59097576    -0.21300
C1965       C  0.92452631  0.34619497  0.63400052    -0.07800
C1966       C  0.90621359  0.38534588  0.64833276     0.13000
C1967       C  0.39728329  0.39729320  0.69460872    -0.24700
H1968       H  0.38925990  0.44789894  0.63103828     0.14300
H1969       H  0.93641023  0.30311819  0.57971749     0.14400
C1970       C  0.92213584  0.35220907  0.51594473    -0.24600
H1971       H  0.38117196  0.42812287  0.69941520     0.04600
H1972       H  0.42607527  0.39990159  0.71175226     0.07800
H1973       H  0.37697955  0.37271391  0.70788705     0.07800
H1974       H  0.94727933  0.37103907  0.50196376     0.07800
H1975       H  0.89345445  0.35860402  0.50018415     0.07800
H1976       H  0.92937280  0.31780274  0.50989082     0.04500
C1977       C  0.55041746  0.12119101  0.89321620    -0.21300
C1978       C  0.53617519  0.08043507  0.87911590    -0.07800
C1979       C  0.02799907  0.07268405  0.83648334     0.13000
C1980       C  0.03087352  0.10693362  0.81028117    -0.21300
C1981       C  0.54004817  0.14824509  0.82635612    -0.07800
C1982       C  0.55168967  0.15508372  0.86793116     0.13000
C1983       C  0.56410366  0.19838495  0.88680999    -0.24700
H1984       H  0.55887273  0.12787645  0.92532188     0.14300
H1985       H  0.02339826  0.10180954  0.77767746     0.14400
C1986       C  0.01634551  0.02983030  0.81599855    -0.24600
H1987       H  0.57787957  0.19636355  0.91777302     0.04600
H1988       H  0.53703009  0.21907416  0.89157149     0.07800
H1989       H  0.58693158  0.21327764  0.86604004     0.07800
H1990       H  0.98580289  0.03172863  0.80256618     0.07800
H1991       H  0.01560174  0.00314169  0.83644474     0.07800
H1992       H  0.03873295  0.02123503  0.79027623     0.04500
C1993       C  0.84121512  0.90751737  0.34724831     0.85500
C1994       C  0.81815246  0.87329190  0.37126051    -0.54700
C1995       C  0.84140987  0.84444080  0.39011268     0.08500
C1996       C  0.88860752  0.85632440  0.38543800     0.19400
C1997       C  0.86778657  0.93067767  0.37918170    -0.55400
C1998       C  0.89266713  0.90595169  0.40051483     0.08600
C1999       C  0.87129491  0.88166424  0.31779048    -0.55000
C2000       C  0.89664953  0.85463257  0.33656713     0.09100
H2001       H  0.78536337  0.87272100  0.37427295     0.13700
H2002       H  0.90869760  0.83504999  0.40178680    -0.00600
H2003       H  0.86949004  0.96509854  0.38148491     0.14000
H2004       H  0.87184777  0.88390841  0.28417276     0.13700
C2005       C  0.65541798  0.59937634  0.14940909     0.85500
C2006       C  0.63276827  0.63708408  0.17289937    -0.54700
C2007       C  0.60786602  0.65996767  0.14920072     0.08500
C2008       C  0.60970702  0.64286647  0.10148800     0.19400
C2009       C  0.62079384  0.57253223  0.12756480    -0.55400
C2010       C  0.59639265  0.59417274  0.10171689     0.08600
C2011       C  0.67889322  0.61891730  0.11303206    -0.55000
C2012       C  0.65659908  0.64239816  0.08761755     0.09100
H2013       H  0.63443349  0.64342035  0.20645928     0.13700
H2014       H  0.59079577  0.66163665  0.08134099    -0.00600
H2015       H  0.61711341  0.53843942  0.13098295     0.14000
H2016       H  0.71140002  0.61481562  0.10805661     0.13700
O2017       O  0.53706021  0.94067797  0.45112705    -0.81100
O2018       O  0.96630500  0.94124804  0.05216864    -0.81100
O2019       O  0.58499875  0.99803099  0.52121624    -0.81100
O2020       O  0.91364374  0.95875266  0.45723645    -0.81100
O2021       O  0.54151089  0.95145470  0.04323431    -0.81200
O2022       O  0.96157665  0.93036123  0.41181930    -0.81100
O2023       O  0.90871638  0.97337733  0.04459382    -0.81100
O2024       O  0.57737625  0.99765756  0.45400864    -0.81100
C2025       C  0.57109616  0.95846287  0.44227581     1.08600
C2026       C  0.92831294  0.94192307  0.05516237     1.08500
C2027       C  0.57669018  0.96119113  0.03299771     1.08600
C2028       C  0.92475286  0.93040689  0.42628726     1.08500
O2029       O  0.94701156  0.50736000  0.41047138    -0.81100
O2030       O  0.54453846  0.53715349  0.08583555    -0.81200
O2031       O  0.53239492  0.56740180  0.45095049    -0.81100
O2032       O  0.93467517  0.06093559  0.04491050    -0.81100
O2033       O  0.95780531  0.02406123  0.09421171    -0.81100
O2034       O  0.01615253  0.51584745  0.40417945    -0.81100
O2035       O  0.94040046  0.55436097  0.46210842    -0.81100
O2036       O  0.56139314  0.57979127  0.03577868    -0.81100
Co2037     Co  0.98902077  0.47698007  0.44444015     1.51500
Co2038     Co  0.50131958  0.98953306  0.06424666     1.51700
Co2039     Co  0.54018298  0.53051446  0.49565598     1.51600
Co2040     Co  0.92851122  0.01366829  0.00280684     1.51500
O2041       O  0.98968772  0.00543287  0.50437471    -1.43000
C2042       C  0.93172103  0.54231395  0.42575877     1.08500
C2043       C  0.56470071  0.57023186  0.07346500     1.08600
C2044       C  0.52836787  0.55360990  0.41338502     1.08600
C2045       C  0.93385475  0.55210668  0.08203762     1.08500
O2046       O  0.81045983  0.77236979  0.40423089    -0.81100
O2047       O  0.75444359  0.70456093  0.08039613    -0.81100
O2048       O  0.80488026  0.80189629  0.02396880    -0.81100
O2049       O  0.76950716  0.63246594  0.46626000    -0.81100
O2050       O  0.76245016  0.79096373  0.07667133    -0.81200
O2051       O  0.79666341  0.68602179  0.43098833    -0.81100
O2052       O  0.79303451  0.69113586  0.02468469    -0.81100
O2053       O  0.80134289  0.82615225  0.45041945    -0.81100
C2054       C  0.81875231  0.81152288  0.41644291     1.08600
C2055       C  0.78802082  0.69247408  0.06378147     1.08500
C2056       C  0.79527713  0.80686841  0.06213441     1.08600
C2057       C  0.79510159  0.64580070  0.43923268     1.08500
O2058       O  0.72681798  0.71746358  0.40694441    -0.81100
O2059       O  0.68285228  0.79555209  0.04589305    -0.81200
O2060       O  0.72154422  0.82182619  0.44621256    -0.81100
O2061       O  0.71091261  0.65386083  0.03421234    -0.81100
O2062       O  0.67172759  0.70800747  0.05389738    -0.81100
O2063       O  0.72877491  0.76229498  0.40737548    -0.81100
O2064       O  0.70071606  0.67431305  0.45307800    -0.81100
O2065       O  0.72984142  0.84121713  0.52534221    -0.81100
Co2066     Co  0.77121052  0.74620879  0.44647634     1.51500
Co2067     Co  0.71864543  0.74923338  0.05985771     1.51700
Co2068     Co  0.75794286  0.79997625  0.48828533     1.51600
Co2069     Co  0.74634594  0.68342829  0.98887808     1.51500
O2070       O  0.73273772  0.74132138  0.49686608    -1.43000
C2071       C  0.70086130  0.68745262  0.41684200     1.08500
C2072       C  0.69441944  0.83311495  0.03788567     1.08600
C2073       C  0.71256818  0.79908685  0.41387472     1.08600
C2074       C  0.67927734  0.66858018  0.05509275     1.08500
O2075       O  0.54304402  0.79482019  0.31267946    -0.81100
O2076       O  0.96702333  0.78881150  0.14585097    -0.81100
O2077       O  0.55310113  0.80399970  0.22810744    -0.81100
O2078       O  0.91135858  0.81032840  0.27377921    -0.81100
O2079       O  0.54868719  0.78598973  0.16090108    -0.81200
O2080       O  0.95796365  0.81102489  0.32076777    -0.81100
O2081       O  0.93401843  0.81997961  0.19956381    -0.81100
O2082       O  0.59340222  0.75791588  0.28058457    -0.81100
C2083       C  0.58116629  0.78534120  0.30901377     1.08600
C2084       C  0.94326464  0.81758561  0.16141649     1.08500
C2085       C  0.55760863  0.81290821  0.19067727     1.08600
C2086       C  0.92364842  0.82375871  0.30944037     1.08500
O2087       O  0.94799047  0.72481790  0.31139456    -0.81100
O2088       O  0.54111888  0.69144147  0.15941523    -0.81200
O2089       O  0.54379427  0.68781577  0.26516804    -0.81100
O2090       O  0.90843538  0.73917781  0.18537269    -0.81100
O2091       O  0.95901990  0.69966421  0.15648840    -0.81100
O2092       O  0.01515359  0.71913793  0.32098833    -0.81100
O2093       O  0.90571157  0.72865116  0.25959701    -0.81100
O2094       O  0.58744653  0.72001201  0.19936838    -0.81100
Co2095     Co  0.99165435  0.76381808  0.29006009     1.51500
Co2096     Co  0.50359464  0.74156368  0.16154651     1.51700
Co2097     Co  0.54836925  0.74620691  0.24579271     1.51600
Co2098     Co  0.93793661  0.76961276  0.23018253     1.51500
O2099       O  0.99374604  0.74647438  0.22570356    -1.43000
C2100       C  0.91542790  0.71353245  0.29323654     1.08500
C2101       C  0.57770478  0.69269969  0.16993809     1.08600
C2102       C  0.53386407  0.68689275  0.30331512     1.08600
C2103       C  0.92145873  0.70789873  0.16178507     1.08500
O2104       O  0.78971444  0.96430816  0.34573559    -0.81100
O2105       O  0.76724078  0.52792620  0.17543378    -0.81100
O2106       O  0.79172107  0.94440642  0.20944409    -0.81100
O2107       O  0.75937120  0.59641240  0.28714612    -0.81100
O2108       O  0.73997038  0.95743629  0.17143749    -0.81200
O2109       O  0.79780207  0.55231921  0.32114886    -0.81100
O2110       O  0.78944543  0.56722535  0.22396693    -0.81100
O2111       O  0.81206353  0.93502296  0.28639010    -0.81100
C2112       C  0.81328073  0.93791523  0.32536093     1.08600
C2113       C  0.79489367  0.55169261  0.18853264     1.08500
C2114       C  0.77463832  0.94015051  0.17528229     1.08600
C2115       C  0.79147285  0.58887988  0.30744776     1.08500
O2116       O  0.71293647  0.55752578  0.33222123    -0.81100
O2117       O  0.67259955  0.97583397  0.23348608    -0.81200
O2118       O  0.72725189  0.91445839  0.31090310    -0.81100
O2119       O  0.70625634  0.59317953  0.20627622    -0.81100
O2120       O  0.68573856  0.53317814  0.17196880    -0.81100
O2121       O  0.70375368  0.97595263  0.33765800    -0.81100
O2122       O  0.68085143  0.54956591  0.27383523    -0.81100
O2123       O  0.70856073  0.91732503  0.22907795    -0.81100
Co2124     Co  0.75323285  0.51149606  0.32939456     1.51500
Co2125     Co  0.72036191  0.00674739  0.21134109     1.51700
Co2126     Co  0.75955721  0.93215336  0.25911744     1.51600
Co2127     Co  0.73467892  0.55331282  0.24493471     1.51500
O2128       O  0.75239709  0.99700683  0.26569587    -1.43000
C2129       C  0.68185541  0.56341401  0.31139645     1.08500
C2130       C  0.67509592  0.93603040  0.22537790     1.08600
C2131       C  0.70253441  0.93612800  0.33494748     1.08600
C2132       C  0.68382897  0.57427608  0.17735282     1.08500
C2133       C  0.84840759  0.69454575  0.32044782    -0.21300
C2134       C  0.88798207  0.68134482  0.30935386    -0.07800
C2135       C  0.89605428  0.63754191  0.30085596     0.13000
C2136       C  0.86422474  0.60795796  0.30449761    -0.21300
C2137       C  0.82397597  0.62139922  0.31166656    -0.07800
C2138       C  0.81609635  0.66513444  0.32019225     0.13000
C2139       C  0.77380564  0.68099124  0.32822668    -0.24700
H2140       H  0.84225437  0.72846077  0.32533822     0.14300
H2141       H  0.87050020  0.57423513  0.29941109     0.14400
C2142       C  0.93638352  0.62184383  0.28271171    -0.24600
H2143       H  0.77396357  0.71547195  0.33828394     0.04600
H2144       H  0.75895687  0.66283013  0.35316396     0.07800
H2145       H  0.75630237  0.67658564  0.29927126     0.07800
H2146       H  0.96080770  0.64594862  0.28727555     0.07800
H2147       H  0.93392593  0.61462570  0.24861358     0.07800
H2148       H  0.94548562  0.59247762  0.29752311     0.04500
C2149       C  0.61657475  0.85018325  0.16328191    -0.21300
C2150       C  0.57880748  0.85328251  0.18392990    -0.07800
C2151       C  0.56988082  0.88968931  0.21087313     0.13000
C2152       C  0.60134032  0.91811115  0.22246780    -0.21300
C2153       C  0.64110433  0.91101163  0.20685795    -0.07800
C2154       C  0.64812871  0.87830116  0.17465251     0.13000
C2155       C  0.68868170  0.87197086  0.15218574    -0.24700
H2156       H  0.62288595  0.82268101  0.14193561     0.14300
H2157       H  0.59523418  0.94417207  0.24556750     0.14400
C2158       C  0.52769905  0.89757185  0.22927389    -0.24600
H2159       H  0.68749521  0.84643030  0.12672148     0.04600
H2160       H  0.71210440  0.86240064  0.17372135     0.07800
H2161       H  0.69742201  0.90194552  0.13784719     0.07800
H2162       H  0.52767819  0.89600759  0.26364105     0.07800
H2163       H  0.50528197  0.87384095  0.21659815     0.07800
H2164       H  0.51749939  0.92976184  0.22167652     0.04500
C2165       C  0.81271846  0.88235140  0.07480380    -0.21300
C2166       C  0.81430033  0.84057215  0.08864415    -0.07800
C2167       C  0.81405078  0.83505190  0.13174904     0.13000
C2168       C  0.80166967  0.86875540  0.15926023    -0.21300
C2169       C  0.79268279  0.90875351  0.14466459    -0.07800
C2170       C  0.80312079  0.91715633  0.10313246     0.13000
C2171       C  0.80422066  0.96215417  0.08916401    -0.24700
H2172       H  0.81487802  0.88719758  0.04164650     0.14300
H2173       H  0.79727420  0.86312841  0.19213482     0.14400
C2174       C  0.82272759  0.79258870  0.14874049    -0.24600
H2175       H  0.81132918  0.96286579  0.05513792     0.04600
H2176       H  0.82817649  0.98057473  0.10610759     0.07800
H2177       H  0.77474063  0.97817245  0.09631873     0.07800
H2178       H  0.83303796  0.76895396  0.12357516     0.08600
H2179       H  0.79496821  0.78016082  0.16465597     0.07800
H2180       H  0.84732711  0.79654969  0.17157254     0.04500
C2181       C  0.65530119  0.62506975  0.40129288    -0.21300
C2182       C  0.67317820  0.66299632  0.38712887    -0.07800
C2183       C  0.66932809  0.67013914  0.34436957     0.13000
C2184       C  0.65838602  0.63595235  0.31624682    -0.21300
C2185       C  0.65318062  0.59482170  0.33038678    -0.07800
C2186       C  0.64496583  0.59112102  0.37324343     0.13000
C2187       C  0.63545895  0.54840666  0.39017805    -0.24700
H2188       H  0.65376988  0.61934808  0.43427481     0.14300
H2189       H  0.66109033  0.63987169  0.28294042     0.14400
C2190       C  0.67455481  0.71340679  0.32867278    -0.24600
H2191       H  0.61087448  0.55241850  0.41424923     0.04600
H2192       H  0.66271747  0.53608428  0.40490330     0.07800
H2193       H  0.62546631  0.52476974  0.36525270     0.07800
H2194       H  0.70562495  0.72536998  0.33316712     0.07800
H2195       H  0.65292013  0.73418596  0.34693225     0.07800
H2196       H  0.66785843  0.71410191  0.29501620     0.04500
C2197       C  0.64095210  0.81514429  0.40534115    -0.21300
C2198       C  0.68011750  0.81209525  0.38712800    -0.07800
C2199       C  0.68546075  0.81289433  0.34341234     0.13000
C2200       C  0.65101601  0.81119639  0.31876826    -0.21300
C2201       C  0.61178121  0.80592606  0.33670724    -0.07800
C2202       C  0.60640088  0.81138851  0.38088880     0.13000
C2203       C  0.56595500  0.81079791  0.40441437    -0.24700
H2204       H  0.63718862  0.81598059  0.43910536     0.14300
H2205       H  0.65510319  0.80910287  0.28503358     0.14400
C2206       C  0.72707051  0.81257764  0.32234938    -0.24600
H2207       H  0.56534580  0.78459285  0.42612795     0.04600
H2208       H  0.53934337  0.80704372  0.38450497     0.07800
H2209       H  0.56240637  0.84121184  0.42372212     0.07800
H2210       H  0.74522897  0.78526828  0.33126240     0.07800
H2211       H  0.74329289  0.84225441  0.33168094     0.07800
H2212       H  0.72536844  0.81074707  0.28777105     0.04500
C2213       C  0.86099516  0.67936185  0.07021044    -0.21300
C2214       C  0.82212262  0.68181643  0.08974764    -0.07800
C2215       C  0.81811609  0.67830541  0.13359735     0.13000
C2216       C  0.85326078  0.67850533  0.15673088    -0.21300
C2217       C  0.89151379  0.68383173  0.13740338    -0.07800
C2218       C  0.89595647  0.67988809  0.09359286     0.13000
C2219       C  0.93706922  0.68008291  0.07134130    -0.24700
H2220       H  0.86439230  0.68008475  0.03655172     0.14300
H2221       H  0.85068510  0.67987912  0.19058862     0.14400
C2222       C  0.77771185  0.67660099  0.15705297    -0.24600
H2223       H  0.93446329  0.67554187  0.03691762     0.04600
H2224       H  0.95562967  0.65351542  0.08164003     0.07800
H2225       H  0.95295642  0.71103750  0.07819916     0.07800
H2226       H  0.75957951  0.64935637  0.14409135     0.07800
H2227       H  0.76103077  0.70694943  0.15528794     0.07800
H2228       H  0.78139048  0.67172589  0.19072828     0.04500
C2229       C  0.85839381  0.54640029  0.41774866    -0.21300
C2230       C  0.89690135  0.56418399  0.40896584    -0.07800
C2231       C  0.89964638  0.60834115  0.40283397     0.13000
C2232       C  0.86463292  0.63371871  0.40822788    -0.21300
C2233       C  0.82684031  0.61620212  0.42067545    -0.07800
C2234       C  0.82323725  0.57129404  0.42218495     0.13000
C2235       C  0.78323448  0.54909433  0.43131725    -0.24700
H2236       H  0.85616907  0.51457088  0.42829296     0.14300
H2237       H  0.86782200  0.66801501  0.40653435     0.14400
C2238       C  0.94031724  0.62954598  0.39530517    -0.24600
H2239       H  0.78585216  0.51387428  0.42588704     0.04600
H2240       H  0.75969167  0.55987278  0.41035564     0.07800
H2241       H  0.77336060  0.55550163  0.46445757     0.07800
H2242       H  0.95590320  0.61356215  0.36765524     0.07800
H2243       H  0.96079396  0.63132477  0.92350139     0.07800
H2244       H  0.93722110  0.66393961  0.38959777     0.04500
C2245       C  0.64597285  0.94069783  0.04162916    -0.21300
C2246       C  0.60620574  0.92807172  0.03400475    -0.07800
C2247       C  0.59506558  0.88406923  0.02892372     0.13000
C2248       C  0.62504822  0.85412302  0.03131316    -0.21300
C2249       C  0.66505615  0.86674670  0.03841816    -0.07800
C2250       C  0.67604943  0.91049954  0.04273701     0.13000
C2251       C  0.71873193  0.92614367  0.04939698    -0.24700
H2252       H  0.65358547  0.97443172  0.04597532     0.14300
H2253       H  0.61682062  0.82064925  0.52648414     0.14400
C2254       C  0.55182867  0.86758965  0.52205460    -0.24600
H2255       H  0.72018908  0.96142860  0.05492418     0.04600
H2256       H  0.73831102  0.91794650  0.52171848     0.07800
H2257       H  0.73015360  0.91146594  0.07696912     0.07800
H2258       H  0.53943650  0.88078944  0.49407622     0.07800
H2259       H  0.53186182  0.87539836  0.04859402     0.07800
H2260       H  0.55072669  0.83223887  0.51661605     0.04500
C2261       C  0.64342125  0.93885820  0.43270593    -0.21300
C2262       C  0.60396212  0.93530524  0.41781133    -0.07800
C2263       C  0.60347879  0.41784090  0.37247055     0.13000
C2264       C  0.63890995  0.40823594  0.34826032    -0.21300
C2265       C  0.67261057  0.91780899  0.36406522    -0.07800
C2266       C  0.67750224  0.92873638  0.40701300     0.13000
C2267       C  0.71879470  0.93542946  0.42539971    -0.24700
H2268       H  0.64812899  0.95331000  0.46352562     0.14300
H2269       H  0.63652999  0.39914058  0.31526682     0.14400
C2270       C  0.56288839  0.40965660  0.35296915    -0.24600
H2271       H  0.72169607  0.91414361  0.45143110     0.04600
H2272       H  0.72239320  0.96921461  0.43741708     0.07800
H2273       H  0.74376543  0.92770080  0.40237448     0.07800
H2274       H  0.54681514  0.44014995  0.35012208     0.07800
H2275       H  0.54380621  0.38852086  0.37214117     0.07800
H2276       H  0.56664673  0.39329975  0.32151851     0.04500
C2277       C  0.90422149  0.55973217  0.15257291    -0.21300
C2278       C  0.89975176  0.56595055  0.11009027    -0.07800
C2279       C  0.86028088  0.57243039  0.09486053     0.13000
C2280       C  0.82680029  0.57162207  0.12274702    -0.21300
C2281       C  0.83139718  0.56022808  0.16371168    -0.07800
C2282       C  0.87042180  0.55310272  0.17859499     0.13000
C2283       C  0.87775605  0.53247310  0.21883641    -0.24700
H2284       H  0.93414895  0.55373907  0.16414227     0.14300
H2285       H  0.79642580  0.57607268  0.11161681     0.14400
C2286       C  0.85220347  0.07510270  0.04941660    -0.24600
H2287       H  0.89885152  0.55249628  0.23772592     0.04600
H2288       H  0.89287729  0.50139808  0.21155711     0.07800
H2289       H  0.84981620  0.52624128  0.23771630     0.07800
H2290       H  0.85949784  0.04418664  0.03221795     0.07800
H2291       H  0.87036097  0.60056251  0.03525717     0.07800
H2292       H  0.81976315  0.08196637  0.04410256     0.04500
C2293       C  0.89948792  0.91627794  0.11854991    -0.21300
C2294       C  0.90910036  0.90728314  0.07620947    -0.07800
C2295       C  0.91872281  0.86541508  0.06137314     0.13000
C2296       C  0.92691112  0.83550093  0.09024057    -0.21300
C2297       C  0.92509066  0.84694785  0.13333815    -0.07800
C2298       C  0.90700351  0.88620892  0.14767385     0.13000
C2299       C  0.39775015  0.89751443  0.19344537    -0.24700
H2300       H  0.39162057  0.94810055  0.12956524     0.14300
H2301       H  0.93732925  0.80406206  0.07894377     0.14400
C2302       C  0.92415285  0.85385363  0.01519917    -0.24600
H2303       H  0.38195602  0.92856221  0.19788137     0.04600
H2304       H  0.42631721  0.89988452  0.21097846     0.07800
H2305       H  0.37703191  0.87323382  0.20662637     0.07800
H2306       H  0.94921146  0.87299759  0.00141987     0.07800
H2307       H  0.89551062  0.86024322  0.99935547     0.07800
H2308       H  0.93157778  0.81952121  0.00894396     0.04500
C2309       C  0.55128368  0.62445477  0.39546279    -0.21300
C2310       C  0.53796201  0.58369349  0.38095156    -0.07800
C2311       C  0.03279560  0.57549878  0.33737293     0.13000
C2312       C  0.03547645  0.60960186  0.31105263    -0.21300
C2313       C  0.54264460  0.65074235  0.32773449    -0.07800
C2314       C  0.55313024  0.65808134  0.36975082     0.13000
C2315       C  0.56442797  0.70162308  0.38870271    -0.24700
H2316       H  0.55815714  0.63119547  0.42801429     0.14300
H2317       H  0.02965824  0.60412362  0.27808949     0.14400
C2318       C  0.02455024  0.53120702  0.31851182    -0.24600
H2319       H  0.57775451  0.69991860  0.41992487     0.04600
H2320       H  0.53687948  0.72168000  0.39292327     0.07800
H2321       H  0.58729873  0.71693207  0.36829660     0.07800
H2322       H  0.99487926  0.51902389  0.33050218     0.07800
H2323       H  0.04946100  0.50972411  0.32612706     0.07800
H2324       H  0.02323643  0.53070602  0.28393867     0.04500
C2325       C  0.84182962  0.90779946  0.84715762     0.85500
C2326       C  0.81858455  0.87371567  0.87118834    -0.54700
C2327       C  0.84165484  0.84489794  0.89029205     0.08500
C2328       C  0.88891867  0.85665227  0.88580912     0.19400
C2329       C  0.86830806  0.93102913  0.87912287    -0.55400
C2330       C  0.89304383  0.90636887  0.90068773     0.08600
C2331       C  0.87200629  0.88174763  0.81794988    -0.55000
C2332       C  0.89720804  0.85465990  0.83695002     0.09100
H2333       H  0.78578686  0.87318841  0.87395589     0.13700
H2334       H  0.90885546  0.83541212  0.90237861    -0.00600
H2335       H  0.87009238  0.96545047  0.88125365     0.14000
H2336       H  0.87263924  0.88383652  0.78431851     0.13700
C2337       C  0.65455316  0.59871455  0.64823781     0.85500
C2338       C  0.63177272  0.63617351  0.67178812    -0.54700
C2339       C  0.60663716  0.65881358  0.64820588     0.08500
C2340       C  0.60826972  0.64157023  0.60046236     0.19400
C2341       C  0.62006190  0.57141182  0.62664071    -0.55400
C2342       C  0.59521333  0.59259497  0.60090879     0.08600
C2343       C  0.67776001  0.61838658  0.61185411    -0.55000
C2344       C  0.65526850  0.64167780  0.58649337     0.09100
H2345       H  0.63368028  0.64265222  0.70531274     0.13700
H2346       H  0.58910795  0.66016907  0.58040602    -0.00600
H2347       H  0.61664604  0.53733898  0.63033399     0.14000
H2348       H  0.71036259  0.61482547  0.60706424     0.13700
O2349       O  0.53725677  0.94030656  0.95052439    -0.81100
O2350       O  0.96572621  0.94058203  0.55197818    -0.81100
O2351       O  0.58528389  0.99785301  0.02041205    -0.81100
O2352       O  0.91400692  0.95927673  0.95743646    -0.81100
O2353       O  0.54113551  0.95159402  0.54371529    -0.81200
O2354       O  0.96193590  0.93098251  0.91193623    -0.81100
O2355       O  0.90815337  0.97273484  0.54443990    -0.81100
O2356       O  0.57745539  0.99744422  0.95328129    -0.81100
C2357       C  0.57126217  0.95821612  0.94157446     1.08600
C2358       C  0.92774791  0.94133145  0.55517400     1.08500
C2359       C  0.57636568  0.96136235  0.53374301     1.08600
C2360       C  0.92511480  0.93094138  0.92644366     1.08500
O2361       O  0.94497663  0.51117019  0.91817515    -0.81100
O2362       O  0.54390693  0.53423324  0.58590445    -0.81200
O2363       O  0.53175442  0.56713523  0.95014216    -0.81100
O2364       O  0.93425127  0.06032777  0.54465330    -0.81100
O2365       O  0.95723395  0.02341962  0.59399162    -0.81100
O2366       O  0.01660744  0.51204490  0.90630206    -0.81100
O2367       O  0.94043996  0.55921263  0.96620464    -0.81100
O2368       O  0.55802044  0.57775485  0.53618734    -0.81100
Co2369     Co  0.98704307  0.47456385  0.94668862     1.51500
Co2370     Co  0.50097409  0.98967505  0.56464170     1.51700
Co2371     Co  0.54308681  0.53282641  0.99536666     1.51600
Co2372     Co  0.92805384  0.01303194  0.50261943     1.51500
O2373       O  0.99024751  0.00616020  0.00461231    -1.43000
C2374       C  0.93239235  0.54734008  0.93040510     1.08500
C2375       C  0.56297672  0.56797493  0.57347293     1.08600
C2376       C  0.52659295  0.55149287  0.91327765     1.08600
C2377       C  0.93530786  0.55050168  0.58218155     1.08500
O2378       O  0.81042586  0.77290346  0.90432717    -0.81100
O2379       O  0.75345914  0.70443377  0.58041852    -0.81100
O2380       O  0.80455650  0.80170080  0.52412406    -0.81100
O2381       O  0.76987571  0.63266581  0.96606803    -0.81100
O2382       O  0.76177197  0.79091093  0.57658788    -0.81200
O2383       O  0.79655154  0.68681182  0.93122480    -0.81100
O2384       O  0.79242717  0.69097004  0.52498413    -0.81100
O2385       O  0.80125648  0.82666338  0.95047464    -0.81100
C2386       C  0.81876028  0.81204021  0.91654522     1.08600
C2387       C  0.78711929  0.69228938  0.56404728     1.08500
C2388       C  0.79470114  0.80678688  0.56221107     1.08600
C2389       C  0.79528215  0.64654118  0.93914675     1.08500
O2390       O  0.72688367  0.71774535  0.90719021    -0.81100
O2391       O  0.68238371  0.79554670  0.54533881    -0.81200
O2392       O  0.72110119  0.82192862  0.94659525    -0.81100
O2393       O  0.71009093  0.65382403  0.53385792    -0.81100
O2394       O  0.67083925  0.70791636  0.55360626    -0.81100
O2395       O  0.72858171  0.76250345  0.90768793    -0.81100
O2396       O  0.70092141  0.67415337  0.95304761    -0.81100
O2397       O  0.73018045  0.84126734  0.02579674    -0.81100
Co2398     Co  0.77122267  0.74681205  0.94668156     1.51500
Co2399     Co  0.71793417  0.74915934  0.55960432     1.51700
Co2400     Co  0.75801806  0.80020809  0.98837949     1.51600
Co2401     Co  0.74600347  0.68336256  0.48890851     1.51500
O2402       O  0.73299543  0.74144670  0.99705440    -1.43000
C2403       C  0.70106003  0.68749492  0.91685665     1.08500
C2404       C  0.69405114  0.83310526  0.53741202     1.08600
C2405       C  0.71209151  0.79913776  0.91428634     1.08600
C2406       C  0.67822638  0.66838405  0.55446220     1.08500
O2407       O  0.54252648  0.79295260  0.81281553    -0.81100
O2408       O  0.96639273  0.78813131  0.64613429    -0.81100
O2409       O  0.55342154  0.80255905  0.72864118    -0.81100
O2410       O  0.91193730  0.81070138  0.77398266    -0.81100
O2411       O  0.54862394  0.78566485  0.66122015    -0.81200
O2412       O  0.95775461  0.80934926  0.82160832    -0.81100
O2413       O  0.93379925  0.81954658  0.69994319    -0.81100
O2414       O  0.59274059  0.75551692  0.78108186    -0.81100
C2415       C  0.58056611  0.78315672  0.80939648     1.08600
C2416       C  0.94286196  0.81707397  0.66176899     1.08500
C2417       C  0.55791295  0.81200541  0.69135518     1.08600
C2418       C  0.92398726  0.82331977  0.80994727     1.08500
O2419       O  0.94744015  0.72338362  0.81152888    -0.81100
O2420       O  0.54035261  0.69107070  0.65852929    -0.81200
O2421       O  0.54233296  0.68583725  0.76415235    -0.81100
O2422       O  0.90768099  0.73884973  0.68607226    -0.81100
O2423       O  0.95789908  0.69905093  0.65682769    -0.81100
O2424       O  0.01416215  0.71632308  0.82058166    -0.81100
O2425       O  0.90468962  0.72906229  0.76043915    -0.81100
O2426       O  0.58678422  0.71845126  0.69906504    -0.81100
Co2427     Co  0.99127933  0.76207259  0.79036171     1.51500
Co2428     Co  0.50327813  0.74146701  0.66117511     1.51700
Co2429     Co  0.54782130  0.74454817  0.74565292     1.51600
Co2430     Co  0.93761806  0.76921455  0.73062307     1.51500
O2431       O  0.99318108  0.74538783  0.72586453    -1.43000
C2432       C  0.91451702  0.71310466  0.79363642     1.08500
C2433       C  0.57685227  0.69171667  0.66920080     1.08600
C2434       C  0.53163774  0.68446872  0.80204791     1.08600
C2435       C  0.92040386  0.70749812  0.66239280     1.08500
O2436       O  0.79027102  0.96453983  0.84550514    -0.81100
O2437       O  0.76648158  0.52831176  0.67450988    -0.81100
O2438       O  0.79208354  0.94499939  0.70920586    -0.81100
O2439       O  0.75870137  0.59639024  0.78628668    -0.81100
O2440       O  0.74008038  0.95772404  0.67142845    -0.81200
O2441       O  0.79639601  0.55186339  0.82072060    -0.81100
O2442       O  0.78913232  0.56706811  0.72311532    -0.81100
O2443       O  0.81276498  0.93534661  0.78615665    -0.81100
C2444       C  0.81394060  0.93821279  0.82514425     1.08600
C2445       C  0.79451969  0.55157717  0.68763067     1.08500
C2446       C  0.77484374  0.94059607  0.67513450     1.08600
C2447       C  0.79045993  0.58853433  0.80699559     1.08500
O2448       O  0.71179700  0.55785611  0.83115897    -0.81100
O2449       O  0.67281850  0.97572539  0.73365898    -0.81200
O2450       O  0.72806428  0.91449579  0.81079695    -0.81100
O2451       O  0.70576814  0.59317963  0.70480465    -0.81100
O2452       O  0.68501633  0.53303126  0.67085047    -0.81100
O2453       O  0.70419925  0.97582628  0.83750964    -0.81100
O2454       O  0.67996397  0.55035913  0.77262398    -0.81100
O2455       O  0.70909511  0.91741915  0.72908612    -0.81100
Co2456     Co  0.75138135  0.51133848  0.82836711     1.51500
Co2457     Co  0.72041995  0.00690861  0.71144859     1.51700
Co2458     Co  0.76015744  0.93242164  0.75896186     1.51600
Co2459     Co  0.73400770  0.55357695  0.74387573     1.51500
O2460       O  0.75267603  0.99723652  0.76566821    -1.43000
C2461       C  0.68090809  0.56412232  0.81024331     1.08500
C2462       C  0.67548193  0.93591766  0.72560854     1.08600
C2463       C  0.70325717  0.93600217  0.83489082     1.08600
C2464       C  0.68319804  0.57407479  0.67608157     1.08500
C2465       C  0.84760977  0.69394505  0.82098329    -0.21300
C2466       C  0.88702166  0.68077501  0.80931862    -0.07800
C2467       C  0.89485861  0.63705388  0.80001014     0.13000
C2468       C  0.86314106  0.60742629  0.80390955    -0.21300
C2469       C  0.82302607  0.62087753  0.81164203    -0.07800
C2470       C  0.81528404  0.66456883  0.82066748     0.13000
C2471       C  0.77311415  0.68043056  0.82912440    -0.24700
H2472       H  0.84156673  0.72783372  0.82639936     0.14300
H2473       H  0.86930148  0.57374232  0.79820778     0.14400
C2474       C  0.93480387  0.62137328  0.78112305    -0.24600
H2475       H  0.77343193  0.71485686  0.83941823     0.04600
H2476       H  0.75845680  0.66204358  0.85399441     0.07800
H2477       H  0.75543570  0.67628755  0.80027133     0.07800
H2478       H  0.95897287  0.64602629  0.78322554     0.07800
H2479       H  0.93124655  0.61212144  0.74752761     0.07800
H2480       H  0.94479881  0.59333438  0.79737036     0.04500
C2481       C  0.61704546  0.84942268  0.66427919    -0.21300
C2482       C  0.57934521  0.85237251  0.68508682    -0.07800
C2483       C  0.57038859  0.88874309  0.71207359     0.13000
C2484       C  0.60176830  0.91740320  0.72339888    -0.21300
C2485       C  0.64147169  0.91060188  0.70745526    -0.07800
C2486       C  0.64846782  0.87786850  0.67526956     0.13000
C2487       C  0.68885493  0.87192017  0.65237470    -0.24700
H2488       H  0.62338391  0.82193702  0.64292170     0.14300
H2489       H  0.59565228  0.94349187  0.74646490     0.14400
C2490       C  0.52820254  0.89657837  0.73049831    -0.24600
H2491       H  0.68760319  0.84643897  0.62685046     0.04600
H2492       H  0.71256307  0.86248445  0.67365085     0.07800
H2493       H  0.69724224  0.90201415  0.63804874     0.07800
H2494       H  0.52823596  0.89536636  0.76489019     0.07800
H2495       H  0.50582759  0.87266173  0.71807175     0.07800
H2496       H  0.51786739  0.92863554  0.72263820     0.04500
C2497       C  0.81229568  0.88229440  0.57472511    -0.21300
C2498       C  0.81365023  0.84055233  0.58870732    -0.07800
C2499       C  0.81347661  0.83515096  0.63182345     0.13000
C2500       C  0.80152196  0.86905898  0.65928257    -0.21300
C2501       C  0.79271964  0.90905436  0.64458197    -0.07800
C2502       C  0.80302509  0.91725671  0.60297535     0.13000
C2503       C  0.80428287  0.96219668  0.58884832    -0.24700
H2504       H  0.81438165  0.88701830  0.54154122     0.14300
H2505       H  0.79722438  0.86358406  0.69220046     0.14400
C2506       C  0.82189184  0.79267970  0.64892455    -0.24600
H2507       H  0.81125159  0.96275175  0.55478436     0.04600
H2508       H  0.82839896  0.98054973  0.60562066     0.07800
H2509       H  0.77490154  0.97838971  0.59608337     0.07800
H2510       H  0.83190303  0.76886072  0.62379924     0.08600
H2511       H  0.79410249  0.78056510  0.66503048     0.07800
H2512       H  0.84662965  0.79649990  0.67161381     0.04500
C2513       C  0.65519196  0.62532443  0.90059700    -0.21300
C2514       C  0.67348986  0.66317548  0.88681342    -0.07800
C2515       C  0.66979248  0.67067184  0.84409588     0.13000
C2516       C  0.65847948  0.63694088  0.81563855    -0.21300
C2517       C  0.65253626  0.59577621  0.82935956    -0.07800
C2518       C  0.64423907  0.59186374  0.87219174     0.13000
C2519       C  0.63354839  0.54925028  0.88867416    -0.24700
H2520       H  0.65354751  0.61933609  0.93351468     0.14300
H2521       H  0.66125987  0.64117531  0.78238638     0.14400
C2522       C  0.67498790  0.71404494  0.82889853    -0.24600
H2523       H  0.60859041  0.55376378  0.91221265     0.04600
H2524       H  0.66017008  0.53626673  0.90396731     0.07800
H2525       H  0.62360961  0.52592845  0.86344636     0.07800
H2526       H  0.70599363  0.72605663  0.83352562     0.07800
H2527       H  0.65327648  0.73431308  0.84757103     0.07800
H2528       H  0.66822339  0.71520679  0.79529842     0.04500
C2529       C  0.64013826  0.81385719  0.90582648    -0.21300
C2530       C  0.67935625  0.81177894  0.88764813    -0.07800
C2531       C  0.68461838  0.81277123  0.84392851     0.13000
C2532       C  0.65016973  0.81024586  0.81921465    -0.21300
C2533       C  0.61106993  0.80399720  0.83713337    -0.07800
C2534       C  0.60564433  0.80929761  0.88132849     0.13000
C2535       C  0.56523481  0.80760616  0.90481028    -0.24700
H2536       H  0.63638560  0.81448799  0.93958317     0.14300
H2537       H  0.65425976  0.80821558  0.78548281     0.14400
C2538       C  0.72625188  0.81332472  0.82297958    -0.24600
H2539       H  0.56526203  0.78127601  0.92637865     0.04600
H2540       H  0.53870300  0.80321754  0.88486159     0.07800
H2541       H  0.56097266  0.83787301  0.92419590     0.07800
H2542       H  0.74475149  0.78608651  0.83148658     0.07800
H2543       H  0.74209430  0.84301664  0.83296774     0.07800
H2544       H  0.72462440  0.81210151  0.78840720     0.04500
C2545       C  0.85989653  0.67861337  0.57084826    -0.21300
C2546       C  0.82099452  0.68153241  0.59024260    -0.07800
C2547       C  0.81679776  0.67844025  0.63412757     0.13000
C2548       C  0.85186309  0.67877684  0.65741010    -0.21300
C2549       C  0.89022015  0.68363579  0.63812766    -0.07800
C2550       C  0.89477297  0.67916467  0.59433808     0.13000
C2551       C  0.93592891  0.67881855  0.57214394    -0.24700
H2552       H  0.86341466  0.67898125  0.53717279     0.14300
H2553       H  0.84917054  0.68053898  0.69126683     0.14400
C2554       C  0.77627814  0.67712357  0.65742304    -0.24600
H2555       H  0.93337093  0.67385988  0.53774506     0.04600
H2556       H  0.95429955  0.65228081  0.58280159     0.07800
H2557       H  0.95198899  0.70973991  0.57864300     0.07800
H2558       H  0.75800014  0.64992330  0.64453410     0.07800
H2559       H  0.75980447  0.70756140  0.65538670     0.07800
H2560       H  0.77978964  0.67245501  0.69116212     0.04500
C2561       C  0.86029173  0.54885348  0.91784125    -0.21300
C2562       C  0.89845592  0.56822780  0.91166480    -0.07800
C2563       C  0.90059352  0.61205435  0.90464031     0.13000
C2564       C  0.86497603  0.63636418  0.90876561    -0.21300
C2565       C  0.82743269  0.61777898  0.92056387    -0.07800
C2566       C  0.82459375  0.57277041  0.92164546     0.13000
C2567       C  0.78493743  0.54960761  0.92996457    -0.24700
H2568       H  0.85874755  0.51625595  0.92686876     0.14300
H2569       H  0.86742770  0.67068135  0.90675921     0.14400
C2570       C  0.94090474  0.63373774  0.89648761    -0.24600
H2571       H  0.78830925  0.51446272  0.92440382     0.04600
H2572       H  0.76148628  0.56000613  0.90871366     0.07800
H2573       H  0.77448542  0.55561402  0.96298195     0.07800
H2574       H  0.95600536  0.61810770  0.86833992     0.07800
H2575       H  0.95955435  0.62710633  0.42280945     0.07800
H2576       H  0.93727256  0.66812366  0.89103825     0.04500
C2577       C  0.64564580  0.94077970  0.54233086    -0.21300
C2578       C  0.60584263  0.92822611  0.53477209    -0.07800
C2579       C  0.59466219  0.88425423  0.52944472     0.13000
C2580       C  0.62468596  0.85427164  0.53124040    -0.21300
C2581       C  0.66474049  0.86681052  0.53820571    -0.07800
C2582       C  0.67574428  0.91053338  0.54296177     0.13000
C2583       C  0.71846356  0.92607002  0.54955234    -0.24700
H2584       H  0.65327673  0.97449046  0.54690117     0.14300
H2585       H  0.61720967  0.82046828  0.02683770     0.14400
C2586       C  0.55232791  0.86734320  0.02114424    -0.24600
H2587       H  0.71994670  0.96131343  0.55544247     0.04600
H2588       H  0.73874046  0.91775200  0.02175523     0.07800
H2589       H  0.73001525  0.91106929  0.57689333     0.07800
H2590       H  0.54027851  0.88032923  0.99291161     0.07800
H2591       H  0.53168030  0.87549916  0.54979111     0.07800
H2592       H  0.55128407  0.83197099  0.01590524     0.04500
C2593       C  0.64388895  0.93947554  0.93239039    -0.21300
C2594       C  0.60448003  0.93508455  0.91744684    -0.07800
C2595       C  0.59984370  0.41781539  0.87554507     0.13000
C2596       C  0.63454750  0.40962115  0.84924638    -0.21300
C2597       C  0.67352885  0.91754707  0.86415581    -0.07800
C2598       C  0.67815028  0.92919315  0.90699841     0.13000
C2599       C  0.71932850  0.93643058  0.92548424    -0.24700
H2600       H  0.64838106  0.95458418  0.96299423     0.14300
H2601       H  0.63075386  0.40134086  0.81628661     0.14400
C2602       C  0.55835712  0.41053782  0.85804343    -0.24600
H2603       H  0.72221691  0.91557258  0.95184595     0.04600
H2604       H  0.72271188  0.97038236  0.93704025     0.07800
H2605       H  0.74442675  0.92848283  0.90266311     0.07800
H2606       H  0.54272707  0.44141408  0.85662218     0.07800
H2607       H  0.53984474  0.38967369  0.87801736     0.07800
H2608       H  0.56038700  0.39469109  0.82621737     0.04500
C2609       C  0.90447851  0.55722938  0.65237035    -0.21300
C2610       C  0.90074290  0.56416284  0.60990558    -0.07800
C2611       C  0.86158496  0.57138449  0.59432068     0.13000
C2612       C  0.82769393  0.57091063  0.62184727    -0.21300
C2613       C  0.83151364  0.55929054  0.66290774    -0.07800
C2614       C  0.87025774  0.55118444  0.67805724     0.13000
C2615       C  0.87676470  0.53015130  0.71828130    -0.24700
H2616       H  0.93412463  0.55051320  0.66423082     0.14300
H2617       H  0.79757678  0.57608835  0.61039653     0.14400
C2618       C  0.85192450  0.07515691  0.54929871    -0.24600
H2619       H  0.89816975  0.54944323  0.73748633     0.04600
H2620       H  0.89117827  0.49871511  0.71096143     0.07800
H2621       H  0.84854146  0.52455218  0.73693234     0.07800
H2622       H  0.85902507  0.04418544  0.53210829     0.07800
H2623       H  0.87309882  0.60021402  0.53533499     0.07800
H2624       H  0.81951118  0.08221215  0.54405422     0.04500
C2625       C  0.89943030  0.91604288  0.61900380    -0.21300
C2626       C  0.90860421  0.90686488  0.57659293    -0.07800
C2627       C  0.91786335  0.86488659  0.56181104     0.13000
C2628       C  0.92613473  0.83499496  0.59068523    -0.21300
C2629       C  0.92471435  0.84654768  0.63376102    -0.07800
C2630       C  0.90698195  0.88598081  0.64814047     0.13000
C2631       C  0.39729301  0.89712623  0.69356314    -0.24700
H2632       H  0.39113654  0.94796285  0.62984625     0.14300
H2633       H  0.93625753  0.80344878  0.57938605     0.14400
C2634       C  0.92273218  0.85312934  0.51563075    -0.24600
H2635       H  0.38148380  0.92814282  0.69811170     0.04600
H2636       H  0.42584426  0.89938531  0.71113364     0.07800
H2637       H  0.37654465  0.87279944  0.70661339     0.07800
H2638       H  0.94776837  0.87204320  0.50150951     0.07800
H2639       H  0.89395434  0.85967848  0.50010003     0.07800
H2640       H  0.92987391  0.81872448  0.50941049     0.04500
C2641       C  0.54944729  0.62142183  0.89335602    -0.21300
C2642       C  0.53490646  0.58069750  0.87959437    -0.07800
C2643       C  0.02779481  0.57210598  0.83627146     0.13000
C2644       C  0.03057196  0.60639943  0.81007939    -0.21300
C2645       C  0.53953293  0.64790161  0.82618569    -0.07800
C2646       C  0.55120569  0.65497894  0.86771904     0.13000
C2647       C  0.56417645  0.69824075  0.88619448    -0.24700
H2648       H  0.55785896  0.62838223  0.92543562     0.14300
H2649       H  0.02290800  0.60131314  0.77752670     0.14400
C2650       C  0.01562429  0.52937668  0.81588102    -0.24600
H2651       H  0.57800100  0.69631261  0.91714591     0.04600
H2652       H  0.53733557  0.71926036  0.89087124     0.07800
H2653       H  0.58714521  0.71264379  0.86522217     0.07800
H2654       H  0.98505709  0.53161769  0.80258239     0.07800
H2655       H  0.01459772  0.50273245  0.83637741     0.07800
H2656       H  0.03782761  0.52049476  0.79007104     0.04500
loop_ 
_geom_bond_atom_site_label_1 
_geom_bond_atom_site_label_2 
_geom_bond_distance 
_geom_bond_site_symmetry_2 
_ccdc_geom_bond_type 
C1            C2   1.542       .  S
C1            C7   1.539       .  S
C1            C5   1.514       .  S
C1          C120   1.550       .  S
C2            H9   1.078       .  S
C2            C3   1.373       .  D
C3            C4   1.592       .  S
C3           C62   1.542       .  S
C4            C8   1.592       .  S
C4            C6   1.612       .  S
C4           H10   1.110       .  S
C5           H11   1.074       .  S
C5            C6   1.362       .  D
C6           C36   1.547       .  S
C7           H12   1.085       .  S
C7            C8   1.373       .  D
C8           C94   1.539       .  S
C13          C14   1.546       .  S
C13          C19   1.532       .  S
C13          C17   1.565       .  S
C13         C140   1.563       .  S
C14          H21   1.086       .  S
C14          C15   1.372       .  D
C15          C16   1.590       .  S
C15         C109   1.541       .  S
C16          C20   1.592       .  S
C16          C18   1.583       .  S
C16          H22   1.110       .  S
C17          H23   1.086       .  S
C17          C18   1.383       .  D
C18          C51   1.557       .  S
C19          H24   1.084       .  S
C19          C20   1.366       .  D
C20          C82   1.535       .  S
O25          C33   1.262       .  A
O25       Co2037   1.948   1_455  S
O26          C34   1.249       .  A
O26       Co1374   1.944       .  S
O27         C367   1.264       .  A
O27        Co711   1.980       .  S
O28          C36   1.308       .  A
O28        Co380   2.151       .  S
O29          C35   1.233       .  A
O29         Co46   1.873       .  S
O30          C36   1.258       .  A
O30        Co709   1.976       .  S
O31          C34   1.253       .  A
O31         Co48   1.986       .  S
O32          C33   1.285       .  A
O32        Co711   2.041       .  S
C33         C270   1.478       .  S
C34         C302   1.443       .  S
C35         O359   1.267       .  A
C35         C254   1.430       .  S
O37          C50   1.247       .  A
O37         Co45   2.074   1_545  S
O38          C51   1.300       .  A
O38        Co710   2.127   1_545  S
O39          C52   1.269       .  A
O39         Co47   1.913       .  S
O40         C717   1.250       .  A
O40         Co48   1.955       .  S
O41         C717   1.264       .  A
O41       Co1374   1.981       .  S
O42        C1380   1.281       .  A
O42         Co45   2.026   1_545  S
O43          C50   1.222       .  A
O43       Co1044   1.939       .  S
O44          C51   1.271       .  A
O44        Co379   1.998   1_554  S
Co45       O2017   1.984       .  S
Co45        O694   1.921       .  S
Co45        O713   2.061   1_565  S
Co46       O1354   1.945   1_455  S
Co46        O702   2.130       .  S
Co46       O1369   1.979   1_455  S
Co46       O1709   2.066   1_455  S
Co47        O691   1.997   1_545  S
Co47        O696   2.013   1_545  S
Co47        O376   2.000       .  S
Co47       O2041   1.950   1_455  S
Co48        O360   2.231   1_554  S
Co48       O1039   1.940   1_554  S
Co48        O381   2.049       .  S
O49       Co1706   2.057       .  S
O49        Co380   2.049       .  S
O49        Co709   2.030       .  S
O49       Co2039   1.987       .  S
C50         C238   1.464       .  S
C52        O1370   1.279       .  A
C52         C318   1.477       .  S
C53         O704   1.250       .  A
C53         O705   1.263       .  A
C53         C286   1.469       .  S
O54          C62   1.293       .  A
O54         Co74   2.042       .  S
O55          C63   1.262       .  A
O55         Co75   1.994       .  S
O56          C64   1.255       .  A
O56        Co408   1.945   1_554  S
O57          C65   1.274       .  A
O57        Co409   1.874       .  S
O58          C64   1.272       .  A
O58         Co75   2.002       .  S
O59          C65   1.302       .  A
O59         Co74   2.087       .  S
O60          C63   1.259       .  A
O60         Co77   1.954   1_554  S
O61          C62   1.276       .  A
O61         Co76   2.041       .  S
C63         C222   1.473       .  S
C64         C174   1.464       .  S
C65         C241   1.482       .  S
O66          C79   1.310       .  A
O66         Co74   2.124       .  S
O67          C80   1.270       .  A
O67         Co75   1.957       .  S
O68          C81   1.264       .  A
O68         Co76   1.992       .  S
O69          C82   1.293       .  A
O69         Co77   2.088   1_554  S
O70          C82   1.265       .  A
O70         Co75   2.007       .  S
O71          C81   1.277       .  A
O71         Co74   1.990       .  S
O72          C79   1.258       .  A
O72        Co409   1.920       .  S
O73         C412   1.255       .  A
O73         Co76   1.924       .  S
Co74         O78   2.028       .  S
Co75        O410   2.054   1_554  S
Co76        O388   1.945       .  S
Co76         O78   2.038       .  S
Co77        O389   1.874       .  S
Co77        O404   1.924       .  S
Co77        O410   1.877       .  S
O78        Co407   2.055       .  S
O78        Co409   1.874       .  S
C79         C190   1.509       .  S
C80         O405   1.256       .  A
C80         C257   1.435       .  S
C81         C206   1.466       .  S
O83          C91   1.290       .  A
O83       Co1431   2.062   1_455  S
O84          C92   1.268       .  A
O84       Co1432   1.998       .  S
O85          C93   1.254       .  A
O85        Co105   1.937       .  S
O86          C94   1.274       .  A
O86        Co106   2.025       .  S
O87          C93   1.275       .  A
O87        Co104   2.023       .  S
O88          C94   1.272       .  A
O88        Co103   2.046       .  S
O89          C92   1.250       .  A
O89        Co106   1.918       .  S
O90          C91   1.272       .  A
O90        Co105   1.901       .  S
C91         C209   1.477       .  S
C92         C305   1.470       .  S
C93         C158   1.462       .  S
O95         C108   1.272       .  A
O95        Co103   2.006       .  S
O96         C109   1.260       .  A
O96        Co104   2.008       .  S
O97         C110   1.258       .  A
O97        Co105   1.974       .  S
O98         C111   1.272       .  A
O98        Co106   1.958       .  S
O99         C111   1.269       .  A
O99       Co1432   1.978       .  S
O100       C1438   1.259       .  A
O100       Co103   1.944       .  S
O101        C108   1.257       .  A
O101       Co106   1.928       .  S
O102        C109   1.280       .  A
O102       Co105   2.069       .  S
Co103      O1411   2.062       .  S
Co103       O107   2.102       .  S
Co104      O1412   2.003   1_455  S
Co104      O1427   1.978   1_455  S
Co104      O1435   2.082   1_455  S
Co105      O1435   1.921   1_455  S
Co106       O107   1.981       .  S
O107      Co1432   2.081       .  S
O107      Co1433   1.922       .  S
C108        C142   1.455       .  S
C110       O1428   1.259       .  A
C110        C321   1.452       .  S
C111        C225   1.455       .  S
O112        C120   1.275       .  A
O112       Co796   2.059       .  S
O113        C121   1.236       .  A
O113       Co797   2.013       .  S
O114        C122   1.250       .  A
O114       Co134   1.944       .  S
O115        C123   1.290       .  A
O115       Co135   2.035       .  S
O116        C122   1.281       .  A
O116       Co133   2.042       .  S
O117        C123   1.275       .  A
O117       Co132   1.959       .  S
O118        C121   1.218       .  A
O118       Co135   1.958       .  S
O119        C120   1.255       .  A
O119       Co134   1.971       .  S
C121        C289   1.451       .  S
C122        C177   1.464       .  S
C123        C145   1.473       .  S
O124        C137   1.260       .  A
O124       Co132   1.962       .  S
O125        C138   1.262       .  A
O125       Co133   1.973       .  S
O126        C139   1.271       .  A
O126       Co134   2.034       .  S
O127        C140   1.312       .  A
O127       Co135   2.063       .  S
O128        C140   1.290       .  A
O128       Co797   1.987       .  S
O129        C139   1.245       .  A
O129       Co796   1.906       .  S
O130        C137   1.257       .  A
O130       Co135   1.978       .  S
O131        C138   1.267       .  A
O131       Co134   2.003       .  S
Co132       O776   2.064   1_545  S
Co132       O793   1.916   1_545  S
Co132       O800   2.054   1_545  S
Co133       O777   2.012       .  S
Co133       O792   1.990       .  S
Co133       O136   2.107       .  S
Co134       O136   2.049       .  S
Co135       O800   2.039   1_545  S
O136       Co796   2.053       .  S
O136       Co799   2.039       .  S
C137        C193   1.461       .  S
C138        C161   1.481       .  S
C139        C273   1.458       .  S
C141        C142   1.398       .  A
C141        C146   1.398       .  A
C141        H148   1.085       .  S
C142        C143   1.410       .  A
C143        C150   1.505       .  S
C143        C144   1.397       .  A
C144        C145   1.401       .  A
C144        H149   1.081       .  S
C145        C146   1.406       .  A
C146        C147   1.490       .  S
C147        H151   1.109       .  S
C147        H152   1.108       .  S
C147        H153   1.109       .  S
C150        H154   1.103       .  S
C150        H155   1.108       .  S
C150        H156   1.110       .  S
C157        C158   1.390       .  A
C157        C162   1.396       .  A
C157        H164   1.085       .  S
C158        C159   1.415       .  A
C159        C166   1.507       .  S
C159        C160   1.403       .  A
C160        C161   1.402       .  A
C160        H165   1.084       .  S
C161        C162   1.426       .  A
C162        C163   1.504       .  S
C163        H167   1.110       .  S
C163        H168   1.108       .  S
C163        H169   1.101       .  S
C166        H170   1.106       .  S
C166        H171   1.110       .  S
C166        H172   1.110       .  S
C173        C174   1.410       .  A
C173        C178   1.408       .  A
C173        H180   1.084       .  S
C174        C175   1.403       .  A
C175        C182   1.502       .  S
C175        C176   1.390       .  A
C176        C177   1.403       .  A
C176        H181   1.085       .  S
C177        C178   1.410       .  A
C178        C179   1.507       .  S
C179        H183   1.106       .  S
C179        H184   1.106       .  S
C179        H185   1.104       .  S
C182        H186   1.109       .  S
C182        H187   1.110       .  S
C182        H188   1.110       .  S
C189        C190   1.413       .  A
C189        C194   1.397       .  A
C189        H196   1.084       .  S
C190        C191   1.414       .  A
C191        C198   1.478       .  S
C191        C192   1.408       .  A
C192        C193   1.398       .  A
C192        H197   1.084       .  S
C193        C194   1.405       .  A
C194        C195   1.501       .  S
C195        H199   1.102       .  S
C195        H200   1.110       .  S
C195        H201   1.111       .  S
C198        H202   1.094       .  S
C198        H203   1.099       .  S
C198        H204   1.111       .  S
C205        C206   1.398       .  A
C205        C210   1.401       .  A
C205        H212   1.085       .  S
C206        C207   1.410       .  A
C207        C214   1.506       .  S
C207        C208   1.401       .  A
C208        C209   1.407       .  A
C208        H213   1.085       .  S
C209        C210   1.422       .  A
C210        C211   1.508       .  S
C211        H215   1.110       .  S
C211        H216   1.100       .  S
C211        H217   1.108       .  S
C214        H218   1.106       .  S
C214        H219   1.096       .  S
C214        H220   1.111       .  S
C221        C222   1.406       .  A
C221        C226   1.393       .  A
C221        H228   1.084       .  S
C222        C223   1.420       .  A
C223        C230   1.508       .  S
C223        C224   1.393       .  A
C224        C225   1.397       .  A
C224        H229   1.085       .  S
C225        C226   1.408       .  A
C226        C227   1.508       .  S
C227        H231   1.111       .  S
C227        H232   1.111       .  S
C227        H233   1.110       .  S
C230        H234   1.104       .  S
C230        H235   1.109       .  S
C230        H236   1.111       .  S
C237        C238   1.402       .  A
C237        C242   1.398       .  A
C237        H244   1.079       .  S
C238        C239   1.406       .  A
C239        C246   1.506       .  S
C239        C240   1.402       .  A
C240        C241   1.409       .  A
C240        H245   1.083       .  S
C241        C242   1.415       .  A
C242        C243   1.510       .  S
C243        H247   1.111       .  S
C243        H248   1.110       .  S
C243        H249   1.109       .  S
C246        H250   1.107       .  S
C246        H252   1.111       .  S
C246        H583   1.110       .  S
H251        C578   1.109       .  S
C253        C254   1.387       .  A
C253        C258   1.379       .  A
C253        H260   1.085       .  S
C254        C255   1.424       .  A
C255        C594   1.517       .  S
C255        C256   1.376       .  A
C256        C257   1.391       .  A
C256        H593   1.085       .  S
C257        C258   1.411       .  A
C258        C259   1.496       .  S
C259        H263   1.111       .  S
C259        H265   1.101       .  S
C259        H596   1.108       .  S
H261        C588   1.085       .  S
C262        C587   1.515       .  S
C262        H266   1.108       .  S
C262        H268   1.111       .  S
C262        H599   1.110       .  S
H264        C591   1.107       .  S
H267        C594   1.109       .  S
C269        C270   1.397       .  A
C269        C274   1.396       .  A
C269        H276   1.079       .  S
C270        C935   1.418       .  A
C271        C278   1.502       .  S
C271        C272   1.413       .  A
C271        C934   1.416       .  A
C272        C937   1.403       .  A
C272        H277   1.084       .  S
C273        C274   1.412       .  A
C273        C936   1.398       .  A
C274        C275   1.504       .  S
C275        H279   1.107       .  S
C275        H280   1.110       .  S
C275        H281   1.106       .  S
C278        H282   1.104       .  S
C278        H283   1.107       .  S
C278        H284   1.108       .  S
C285        C286   1.403       .  A
C285        C290   1.391       .  A
C285        H292   1.085       .  S
C286        C287   1.423       .  A
C287        C958   1.512       .  S
C287        C288   1.397       .  A
C288        C289   1.397       .  A
C288        H293   1.085       .  S
C289        C290   1.409       .  A
C290        C291   1.507       .  S
C291        H295   1.101       .  S
C291        H296   1.107   1_545  S
C291        H297   1.106       .  S
C294        C951   1.512       .  S
C294        H298   1.110       .  S
C294        H300   1.111       .  S
C294        H963   1.107       .  S
H299        C958   1.107       .  S
C301        C302   1.398       .  A
C301        C306   1.397       .  A
C301       H1636   1.085       .  S
C302        C303   1.404       .  A
C303        C310   1.509       .  S
C303        C304   1.392       .  A
C304        C305   1.407       .  A
C304        H309   1.084       .  S
C305        C306   1.416       .  A
C306       C1635   1.507       .  S
C307       C1634   1.507       .  S
C307        H311   1.107       .  S
C307        H312   1.110       .  S
C307        H313   1.110       .  S
H308       C1629   1.085       .  S
C310        H314   1.110       .  S
C310        H315   1.111       .  S
C310        H316   1.111       .  S
C317        C318   1.408       .  A
C317        C322   1.375       .  A
C317        H324   1.083       .  S
C318       C1647   1.424       .  A
C319        C326   1.504       .  S
C319        C320   1.405       .  A
C319       C1646   1.415       .  A
C320       C1649   1.402       .  A
C320        H325   1.084       .  S
C321        C322   1.403       .  A
C321       C1648   1.400       .  A
C322        C323   1.509       .  S
C323        H327   1.111       .  S
C323        H328   1.108       .  S
C323        H329   1.106       .  S
C326        H330   1.110       .  S
C326        H331   1.109       .  S
C326        H332   1.111       .  S
C333        C334   1.538       .  S
C333        C339   1.546       .  S
C333        C337   1.514       .  S
C333        C452   1.546       .  S
C334        H341   1.079       .  S
C334        C335   1.371       .  D
C335        C336   1.596       .  S
C335        C394   1.543       .  S
C336        C340   1.579       .  S
C336        C338   1.606       .  S
C336        H342   1.110       .  S
C337        H343   1.078       .  S
C337        C338   1.362       .  D
C338        C368   1.532       .  S
C339        H344   1.084       .  S
C339        C340   1.375       .  D
C340        C426   1.533       .  S
C345        C346   1.545       .  S
C345        C351   1.533       .  S
C345        C349   1.566       .  S
C345        C472   1.563       .  S
C346        H353   1.086       .  S
C346        C347   1.371       .  D
C347        C348   1.590       .  S
C347        C441   1.538       .  S
C348        C352   1.590       .  S
C348        C350   1.583       .  S
C348        H354   1.110       .  S
C349        H355   1.086       .  S
C349        C350   1.384       .  D
C350        C383   1.558       .  S
C351        H356   1.083       .  S
C351        C352   1.366       .  D
C352        C414   1.534       .  S
O357        C365   1.278       .  A
O357      Co2369   1.990   1_455  S
O358        C366   1.253       .  A
O358      Co1706   1.941       .  S
O359      Co1043   1.996   1_554  S
O360        C368   1.337       .  A
O361        C367   1.236       .  A
O361       Co378   1.877       .  S
O362        C368   1.283       .  A
O362      Co1041   1.916       .  S
O363        C366   1.262       .  A
O363       Co380   2.002       .  S
O364        C365   1.279       .  A
O364      Co1043   2.013       .  S
C365        C602   1.488       .  S
C366        C634   1.445       .  S
C367        C586   1.425       .  S
O369        C382   1.247       .  A
O369       Co377   2.077   1_545  S
O370        C383   1.300       .  A
O370      Co1042   2.128   1_545  S
O371        C384   1.268       .  A
O371       Co379   1.905       .  S
O372       C1049   1.253       .  A
O372       Co380   1.959       .  S
O373       C1049   1.264       .  A
O373      Co1706   1.976       .  S
O374       C1712   1.279       .  A
O374       Co377   2.023   1_545  S
O375        C382   1.222       .  A
O375       Co712   1.940   1_556  S
O376        C383   1.272       .  A
Co377      O2349   1.988       .  S
Co377      O1026   1.918       .  S
Co377      O1045   2.055   1_566  S
Co378      O1686   1.940   1_455  S
Co378      O1034   2.132       .  S
Co378      O1701   1.978   1_455  S
Co378      O1377   2.056   1_455  S
Co379      O1023   1.994   1_546  S
Co379      O1028   2.013   1_545  S
Co379      O2373   1.951   1_456  S
Co380       O707   1.941       .  S
O381      Co1041   2.050   1_554  S
O381      Co1374   2.066       .  S
O381      Co2371   1.949   1_554  S
C382        C570   1.464       .  S
C384       O1702   1.279       .  A
C384        C650   1.475       .  S
C385       O1036   1.250       .  A
C385       O1037   1.263       .  A
C385        C618   1.469       .  S
O386        C394   1.293       .  A
O386       Co406   2.042       .  S
O387        C395   1.262       .  A
O387       Co407   1.995       .  S
O388        C396   1.255       .  A
O389        C397   1.274       .  A
O390        C396   1.270       .  A
O390       Co407   1.998       .  S
O391        C397   1.302       .  A
O391       Co406   2.089       .  S
O392        C395   1.258       .  A
O392       Co409   1.950       .  S
O393        C394   1.277       .  A
O393       Co408   2.042       .  S
C395        C554   1.471       .  S
C396        C506   1.461       .  S
C397        C573   1.482       .  S
O398        C411   1.310       .  A
O398       Co406   2.124       .  S
O399        C412   1.271       .  A
O399       Co407   1.960       .  S
O400        C413   1.263       .  A
O400       Co408   1.991       .  S
O401        C414   1.292       .  A
O401       Co409   2.086       .  S
O402        C414   1.266       .  A
O402       Co407   2.006       .  S
O403        C413   1.278       .  A
O403       Co406   1.994       .  S
O404        C411   1.258       .  A
O405       Co408   1.926   1_554  S
Co406       O410   2.028       .  S
Co408       O410   2.040       .  S
C411        C522   1.511       .  S
C412        C589   1.434       .  S
C413        C538   1.467       .  S
O415        C423   1.291       .  A
O415      Co1763   2.065   1_455  S
O416        C424   1.269       .  A
O416      Co1764   2.004       .  S
O417        C425   1.254       .  A
O417       Co437   1.934       .  S
O418        C426   1.271       .  A
O418       Co438   2.016       .  S
O419        C425   1.275       .  A
O419       Co436   2.022       .  S
O420        C426   1.273       .  A
O420       Co435   2.045       .  S
O421        C424   1.249       .  A
O421       Co438   1.918       .  S
O422        C423   1.273       .  A
O422       Co437   1.904       .  S
C423        C541   1.480       .  S
C424        C637   1.473       .  S
C425        C490   1.461       .  S
O427        C440   1.272       .  A
O427       Co435   2.005       .  S
O428        C441   1.259       .  A
O428       Co436   2.003       .  S
O429        C442   1.258       .  A
O429       Co437   1.971       .  S
O430        C443   1.270       .  A
O430       Co438   1.954       .  S
O431        C443   1.268       .  A
O431      Co1764   1.977       .  S
O432       C1770   1.259       .  A
O432       Co435   1.949       .  S
O433        C440   1.257       .  A
O433       Co438   1.930       .  S
O434        C441   1.280       .  A
O434       Co437   2.069       .  S
Co435      O1743   2.065       .  S
Co435       O439   2.102       .  S
Co436      O1744   2.003   1_455  S
Co436      O1759   1.977   1_455  S
Co436      O1767   2.080   1_455  S
Co437      O1767   1.921   1_455  S
Co438       O439   1.977       .  S
O439      Co1764   2.081       .  S
O439      Co1765   1.921       .  S
C440        C474   1.455       .  S
C442       O1760   1.259       .  A
C442        C653   1.451       .  S
C443        C557   1.452       .  S
O444        C452   1.276       .  A
O444      Co1128   2.063       .  S
O445        C453   1.236       .  A
O445      Co1129   2.013       .  S
O446        C454   1.247       .  A
O446       Co466   1.940       .  S
O447        C455   1.290       .  A
O447       Co467   2.035       .  S
O448        C454   1.280       .  A
O448       Co465   2.039       .  S
O449        C455   1.275       .  A
O449       Co464   1.961       .  S
O450        C453   1.218       .  A
O450       Co467   1.959       .  S
O451        C452   1.251       .  A
O451       Co466   1.961       .  S
C453        C621   1.452       .  S
C454        C509   1.462       .  S
C455        C477   1.473       .  S
O456        C469   1.259       .  A
O456       Co464   1.962       .  S
O457        C470   1.262       .  A
O457       Co465   1.972       .  S
O458        C471   1.275       .  A
O458       Co466   2.047       .  S
O459        C472   1.313       .  A
O459       Co467   2.064       .  S
O460        C472   1.290       .  A
O460      Co1129   1.987       .  S
O461        C471   1.246       .  A
O461      Co1128   1.916       .  S
O462        C469   1.258       .  A
O462       Co467   1.980       .  S
O463        C470   1.265       .  A
O463       Co466   1.997       .  S
Co464      O1108   2.062   1_545  S
Co464      O1125   1.915   1_545  S
Co464      O1132   2.055   1_545  S
Co465      O1109   2.017       .  S
Co465      O1124   1.985       .  S
Co465       O468   2.107       .  S
Co466       O468   2.046       .  S
Co467      O1132   2.039   1_545  S
O468      Co1128   2.056       .  S
O468      Co1131   2.040       .  S
C469        C525   1.462       .  S
C470        C493   1.478       .  S
C471        C605   1.473       .  S
C473        C474   1.397       .  A
C473        C478   1.399       .  A
C473        H480   1.085       .  S
C474        C475   1.409       .  A
C475        C482   1.504       .  S
C475        C476   1.397       .  A
C476        C477   1.400       .  A
C476        H481   1.081       .  S
C477        C478   1.407       .  A
C478        C479   1.490       .  S
C479        H483   1.109       .  S
C479        H484   1.108       .  S
C479        H485   1.109       .  S
C482        H486   1.103       .  S
C482        H487   1.108       .  S
C482        H488   1.108       .  S
C489        C490   1.390       .  A
C489        C494   1.396       .  A
C489        H496   1.085       .  S
C490        C491   1.416       .  A
C491        C498   1.507       .  S
C491        C492   1.402       .  A
C492        C493   1.400       .  A
C492        H497   1.085       .  S
C493        C494   1.425       .  A
C494        C495   1.504       .  S
C495        H499   1.110       .  S
C495        H500   1.107       .  S
C495        H501   1.102       .  S
C498        H502   1.107       .  S
C498        H503   1.110       .  S
C498        H504   1.110       .  S
C505        C506   1.410       .  A
C505        C510   1.407       .  A
C505        H512   1.084       .  S
C506        C507   1.404       .  A
C507        C514   1.503       .  S
C507        C508   1.390       .  A
C508        C509   1.402       .  A
C508        H513   1.085       .  S
C509        C510   1.405       .  A
C510        C511   1.505       .  S
C511        H515   1.111       .  S
C511        H516   1.108       .  S
C511        H517   1.107       .  S
C514        H518   1.109       .  S
C514        H519   1.110       .  S
C514        H520   1.110       .  S
C521        C522   1.414       .  A
C521        C526   1.401       .  A
C521        H528   1.083       .  S
C522        C523   1.413       .  A
C523        C530   1.480       .  S
C523        C524   1.408       .  A
C524        C525   1.399       .  A
C524        H529   1.084       .  S
C525        C526   1.407       .  A
C526        C527   1.506       .  S
C527        H531   1.109       .  S
C527        H532   1.108       .  S
C527        H533   1.108       .  S
C530        H534   1.094       .  S
C530        H535   1.099       .  S
C530        H536   1.111       .  S
C537        C538   1.398       .  A
C537        C542   1.401       .  A
C537        H544   1.085       .  S
C538        C539   1.410       .  A
C539        C546   1.506       .  S
C539        C540   1.402       .  A
C540        C541   1.408       .  A
C540        H545   1.085       .  S
C541        C542   1.422       .  A
C542        C543   1.508       .  S
C543        H547   1.109       .  S
C543        H548   1.101       .  S
C543        H549   1.109       .  S
C546        H550   1.106       .  S
C546        H551   1.097       .  S
C546        H552   1.111       .  S
C553        C554   1.406       .  A
C553        C558   1.392       .  A
C553        H560   1.084       .  S
C554        C555   1.420       .  A
C555        C562   1.507       .  S
C555        C556   1.393       .  A
C556        C557   1.397       .  A
C556        H561   1.085       .  S
C557        C558   1.407       .  A
C558        C559   1.509       .  S
C559        H563   1.111       .  S
C559        H564   1.111       .  S
C559        H565   1.110       .  S
C562        H566   1.104       .  S
C562        H567   1.109       .  S
C562        H568   1.111       .  S
C569        C570   1.402       .  A
C569        C574   1.398       .  A
C569        H576   1.079       .  S
C570        C571   1.406       .  A
C571        C578   1.506       .  S
C571        C572   1.402       .  A
C572        C573   1.409       .  A
C572        H577   1.083       .  S
C573        C574   1.415       .  A
C574        C575   1.510       .  S
C575        H579   1.111       .  S
C575        H580   1.110       .  S
C575        H581   1.109       .  S
C578        H582   1.107       .  S
C578        H584   1.111       .  S
C585        C586   1.387       .  A
C585        C590   1.379       .  A
C585        H592   1.085       .  S
C586        C587   1.418       .  A
C587        C588   1.376       .  A
C588        C589   1.393       .  A
C589        C590   1.414       .  A
C590        C591   1.500       .  S
C591        H595   1.110       .  S
C591        H597   1.101       .  S
C594        H598   1.102   1_554  S
C594        H600   1.111       .  S
C601        C602   1.399       .  A
C601        C606   1.399       .  A
C601        H608   1.079       .  S
C602       C1267   1.416       .  A
C603        C610   1.502       .  S
C603       C1266   1.416       .  A
C603        C604   1.413       .  A
C604       C1269   1.404       .  A
C604        H609   1.084       .  S
C605       C1268   1.403       .  A
C605        C606   1.414       .  A
C606        C607   1.505       .  S
C607        H611   1.109       .  S
C607        H612   1.110       .  S
C607        H613   1.106       .  S
C610        H614   1.105       .  S
C610        H615   1.107       .  S
C610        H616   1.108       .  S
C617        C618   1.403       .  A
C617        C622   1.391       .  A
C617        H624   1.085       .  S
C618        C619   1.422       .  A
C619       C1290   1.512       .  S
C619        C620   1.397       .  A
C620        C621   1.397       .  A
C620        H625   1.085       .  S
C621        C622   1.409       .  A
C622        C623   1.507       .  S
C623        H627   1.101       .  S
C623        H628   1.107   1_545  S
C623        H629   1.106       .  S
C626       C1283   1.512       .  S
C626        H630   1.109       .  S
C626       H1295   1.107       .  S
C626        H632   1.111       .  S
H631       C1290   1.107       .  S
C633        C634   1.397       .  A
C633        C638   1.398       .  A
C633       H1968   1.085       .  S
C634        C635   1.407       .  A
C635        C642   1.508       .  S
C635        C636   1.393       .  A
C636        C637   1.406       .  A
C636        H641   1.084       .  S
C637        C638   1.417       .  A
C638       C1967   1.506       .  S
C639       C1966   1.506       .  S
C639        H643   1.107       .  S
C639        H644   1.110       .  S
C639        H645   1.110       .  S
H640       C1961   1.085       .  S
C642        H646   1.109       .  S
C642        H647   1.110       .  S
C642        H648   1.111       .  S
C649        C650   1.408       .  A
C649        C654   1.374       .  A
C649        H656   1.083       .  S
C650       C1979   1.424       .  A
C651        C658   1.508       .  S
C651       C1978   1.424       .  A
C651        C652   1.404       .  A
C652       C1981   1.400       .  A
C652        H657   1.084       .  S
C653       C1980   1.400       .  A
C653        C654   1.402       .  A
C654        C655   1.509       .  S
C655        H659   1.111       .  S
C655        H660   1.108       .  S
C655        H661   1.106       .  S
C658        H662   1.110       .  S
C658        H663   1.094       .  S
C658        H664   1.111       .  S
C665        C666   1.538       .  S
C665        C671   1.547       .  S
C665        C669   1.514       .  S
C665        C784   1.547       .  S
C666        H673   1.079       .  S
C666        C667   1.372       .  D
C667        C668   1.597       .  S
C667        C726   1.545       .  S
C668        C672   1.580       .  S
C668        C670   1.606       .  S
C668        H674   1.110       .  S
C669        H675   1.078       .  S
C669        C670   1.362       .  D
C670        C700   1.531       .  S
C671        H676   1.085       .  S
C671        C672   1.374       .  D
C672        C758   1.534       .  S
C677        C678   1.546       .  S
C677        C683   1.534       .  S
C677        C681   1.567       .  S
C677        C804   1.566       .  S
C678        H685   1.086       .  S
C678        C679   1.372       .  D
C679        C680   1.590       .  S
C679        C773   1.540       .  S
C680        C684   1.590       .  S
C680        C682   1.583       .  S
C680        H686   1.110       .  S
C681        H687   1.086       .  S
C681        C682   1.385       .  D
C682        C715   1.560       .  S
C683        H688   1.083       .  S
C683        C684   1.367       .  D
C684        C746   1.536       .  S
O689        C697   1.278       .  A
O689      Co1373   1.988   1_455  S
O690        C698   1.250       .  A
O690      Co2038   1.945       .  S
O691       C1031   1.267       .  A
O692        C700   1.335       .  A
O692      Co1044   2.224   1_565  S
O693        C699   1.233       .  A
O693       Co710   1.875       .  S
O694        C700   1.282       .  A
O695        C698   1.254       .  A
O695       Co712   1.989   1_565  S
O696        C697   1.279       .  A
C697        C934   1.487       .  S
C698        C966   1.443       .  S
C699       O1023   1.266       .  A
C699        C918   1.432       .  S
O701        C714   1.274       .  A
O701       Co709   2.064       .  S
O702        C715   1.300       .  A
O703        C716   1.265       .  A
O703       Co711   1.917       .  S
O704       Co712   1.955       .  S
O705      Co2038   1.979   1_545  S
O706       C2044   1.273       .  A
O706       Co709   2.011       .  S
O707        C714   1.244       .  A
O708        C715   1.272       .  A
O708      Co1043   2.001   1_554  S
Co709      O1353   1.948       .  S
Co710      O2018   1.945   1_455  S
Co710      O2033   1.981   1_465  S
Co710      O2373   2.065   1_465  S
Co711      O1040   2.005       .  S
Co711      O1377   1.986   1_455  S
Co712      O1024   2.227   1_544  S
Co712      O1045   2.046       .  S
O713      Co2370   2.067   1_545  S
O713      Co1044   2.044       .  S
O713      Co1375   1.952       .  S
C714        C902   1.474       .  S
C716       O2034   1.274       .  A
C716        C982   1.469       .  S
C717        C950   1.469       .  S
O718        C726   1.294       .  A
O718       Co738   2.044       .  S
O719        C727   1.263       .  A
O719       Co739   1.996       .  S
O720        C728   1.256       .  A
O720      Co1072   1.946   1_554  S
O721        C729   1.275       .  A
O721      Co1073   1.876       .  S
O722        C728   1.271       .  A
O722       Co739   1.999       .  S
O723        C729   1.304       .  A
O723       Co738   2.097       .  S
O724        C727   1.258       .  A
O724       Co741   1.951   1_554  S
O725        C726   1.277       .  A
O725       Co740   2.043       .  S
C727        C886   1.472       .  S
C728        C838   1.463       .  S
C729        C905   1.489       .  S
O730        C743   1.310       .  A
O730       Co738   2.124       .  S
O731        C744   1.272       .  A
O731       Co739   1.962       .  S
O732        C745   1.263       .  A
O732       Co740   1.990       .  S
O733        C746   1.292       .  A
O733       Co741   2.088   1_554  S
O734        C746   1.266       .  A
O734       Co739   2.008       .  S
O735        C745   1.278       .  A
O735       Co738   1.995       .  S
O736        C743   1.257       .  A
O736      Co1073   1.920       .  S
O737       C1076   1.255       .  A
O737       Co740   1.925       .  S
Co738       O742   2.032       .  S
Co739      O1074   2.055   1_554  S
Co740      O1052   1.944       .  S
Co740       O742   2.039       .  S
Co741      O1053   1.875       .  S
Co741      O1068   1.922       .  S
Co741      O1074   1.876       .  S
O742      Co1071   2.056       .  S
O742      Co1073   1.874       .  S
C743        C854   1.510       .  S
C744       O1069   1.255       .  A
C744        C921   1.436       .  S
C745        C870   1.467       .  S
O747        C755   1.291       .  A
O747      Co2095   2.066   1_455  S
O748        C756   1.268       .  A
O748      Co2096   2.002       .  S
O749        C757   1.253       .  A
O749       Co769   1.933       .  S
O750        C758   1.271       .  A
O750       Co770   2.018       .  S
O751        C757   1.274       .  A
O751       Co768   2.023       .  S
O752        C758   1.273       .  A
O752       Co767   2.046       .  S
O753        C756   1.250       .  A
O753       Co770   1.918       .  S
O754        C755   1.273       .  A
O754       Co769   1.902       .  S
C755        C873   1.480       .  S
C756        C969   1.472       .  S
C757        C822   1.462       .  S
O759        C772   1.272       .  A
O759       Co767   2.005       .  S
O760        C773   1.259       .  A
O760       Co768   2.004       .  S
O761        C774   1.258       .  A
O761       Co769   1.969       .  S
O762        C775   1.271       .  A
O762       Co770   1.954       .  S
O763        C775   1.269       .  A
O763      Co2096   1.978       .  S
O764       C2102   1.259       .  A
O764       Co767   1.949       .  S
O765        C772   1.258       .  A
O765       Co770   1.929       .  S
O766        C773   1.281       .  A
O766       Co769   2.071       .  S
Co767      O2075   2.066       .  S
Co767       O771   2.103       .  S
Co768      O2076   2.001   1_455  S
Co768      O2091   1.978   1_455  S
Co768      O2099   2.081   1_455  S
Co769      O2099   1.921   1_455  S
Co770       O771   1.979       .  S
O771      Co2096   2.082       .  S
O771      Co2097   1.921       .  S
C772        C806   1.454       .  S
C774       O2092   1.259       .  A
C774        C985   1.452       .  S
C775        C889   1.453       .  S
O776        C784   1.276       .  A
O777        C785   1.237       .  A
O778        C786   1.247       .  A
O778       Co798   1.941       .  S
O779        C787   1.290       .  A
O779       Co799   2.035       .  S
O780        C786   1.281       .  A
O780       Co797   2.042   1_565  S
O781        C787   1.274       .  A
O781       Co796   1.956       .  S
O782        C785   1.217       .  A
O782       Co799   1.957       .  S
O783        C784   1.251       .  A
O783       Co798   1.961       .  S
C785        C953   1.451       .  S
C786        C841   1.463       .  S
C787        C809   1.472       .  S
O788        C801   1.259       .  A
O788       Co796   1.964       .  S
O789        C802   1.261       .  A
O789       Co797   1.971   1_565  S
O790        C803   1.275       .  A
O790       Co798   2.046       .  S
O791        C804   1.313       .  A
O791       Co799   2.068       .  S
O792        C804   1.290       .  A
O793        C803   1.246       .  A
O794        C801   1.258       .  A
O794       Co799   1.979       .  S
O795        C802   1.265       .  A
O795       Co798   1.998       .  S
Co797       O800   2.106   1_545  S
Co798       O800   2.046       .  S
C801        C857   1.462       .  S
C802        C825   1.477       .  S
C803        C937   1.471       .  S
C805        C806   1.399       .  A
C805        C810   1.399       .  A
C805        H812   1.085       .  S
C806        C807   1.410       .  A
C807        C814   1.506       .  S
C807        C808   1.397       .  A
C808        C809   1.401       .  A
C808        H813   1.081       .  S
C809        C810   1.406       .  A
C810        C811   1.492       .  S
C811        H815   1.109       .  S
C811        H816   1.108       .  S
C811        H817   1.109       .  S
C814        H818   1.103       .  S
C814        H819   1.109       .  S
C814        H820   1.110       .  S
C821        C822   1.390       .  A
C821        C826   1.396       .  A
C821        H828   1.085       .  S
C822        C823   1.416       .  A
C823        C830   1.507       .  S
C823        C824   1.402       .  A
C824        C825   1.400       .  A
C824        H829   1.085       .  S
C825        C826   1.425       .  A
C826        C827   1.504       .  S
C827        H831   1.109       .  S
C827        H832   1.107       .  S
C827        H833   1.102       .  S
C830        H834   1.107       .  S
C830        H835   1.110       .  S
C830        H836   1.110       .  S
C837        C838   1.410       .  A
C837        C842   1.408       .  A
C837        H844   1.084       .  S
C838        C839   1.404       .  A
C839        C846   1.503       .  S
C839        C840   1.390       .  A
C840        C841   1.403       .  A
C840        H845   1.085       .  S
C841        C842   1.405       .  A
C842        C843   1.505       .  S
C843        H847   1.111       .  S
C843        H848   1.108       .  S
C843        H849   1.108       .  S
C846        H850   1.109       .  S
C846        H851   1.110       .  S
C846        H852   1.110       .  S
C853        C854   1.414       .  A
C853        C858   1.400       .  A
C853        H860   1.083       .  S
C854        C855   1.413       .  A
C855        C862   1.481       .  S
C855        C856   1.408       .  A
C856        C857   1.399       .  A
C856        H861   1.084       .  S
C857        C858   1.407       .  A
C858        C859   1.506       .  S
C859        H863   1.109       .  S
C859        H864   1.108       .  S
C859        H865   1.108       .  S
C862        H866   1.095       .  S
C862        H867   1.100       .  S
C862        H868   1.111       .  S
C869        C870   1.399       .  A
C869        C874   1.401       .  A
C869        H876   1.085       .  S
C870        C871   1.410       .  A
C871        C878   1.506       .  S
C871        C872   1.401       .  A
C872        C873   1.407       .  A
C872        H877   1.085       .  S
C873        C874   1.423       .  A
C874        C875   1.508       .  S
C875        H879   1.109       .  S
C875        H880   1.101       .  S
C875        H881   1.109       .  S
C878        H882   1.106       .  S
C878        H883   1.097       .  S
C878        H884   1.111       .  S
C885        C886   1.406       .  A
C885        C890   1.392       .  A
C885        H892   1.084       .  S
C886        C887   1.420       .  A
C887        C894   1.507       .  S
C887        C888   1.394       .  A
C888        C889   1.397       .  A
C888        H893   1.085       .  S
C889        C890   1.407       .  A
C890        C891   1.508       .  S
C891        H895   1.111       .  S
C891        H896   1.111       .  S
C891        H897   1.110       .  S
C894        H898   1.104       .  S
C894        H899   1.109       .  S
C894        H900   1.111       .  S
C901        C902   1.404       .  A
C901        C906   1.400       .  A
C901        H908   1.076       .  S
C902        C903   1.411       .  A
C903        C910   1.506       .  S
C903        C904   1.407       .  A
C904        C905   1.409       .  A
C904        H909   1.083       .  S
C905        C906   1.414       .  A
C906        C907   1.510       .  S
C907        H911   1.111       .  S
C907        H912   1.111       .  S
C907        H913   1.109       .  S
C910        H914   1.106       .  S
C910       H1247   1.109       .  S
C910        H916   1.111       .  S
H915       C1242   1.109       .  S
C917        C918   1.387       .  A
C917        C922   1.379       .  A
C917        H924   1.085       .  S
C918        C919   1.424       .  A
C919       C1258   1.517       .  S
C919        C920   1.376       .  A
C920        C921   1.391       .  A
C920       H1257   1.085       .  S
C921        C922   1.414       .  A
C922        C923   1.499       .  S
C923        H927   1.110       .  S
C923       H1260   1.107       .  S
C923        H929   1.101       .  S
H925       C1252   1.085       .  S
C926       C1251   1.517       .  S
C926        H930   1.103       .  S
C926       H1263   1.109       .  S
C926        H932   1.111       .  S
H928       C1255   1.107       .  S
H931       C1258   1.109       .  S
C933        C934   1.399       .  A
C933        C938   1.398       .  A
C933        H940   1.077       .  S
C935        C942   1.505       .  S
C935        C936   1.405       .  A
C936        H941   1.084       .  S
C937        C938   1.413       .  A
C938        C939   1.505       .  S
C939        H943   1.108       .  S
C939        H944   1.110       .  S
C939        H945   1.106       .  S
C942        H946   1.108       .  S
C942        H947   1.108       .  S
C942        H948   1.108       .  S
C949        C950   1.402       .  A
C949        C954   1.390       .  A
C949        H956   1.085       .  S
C950        C951   1.423       .  A
C951        C952   1.397       .  A
C952        C953   1.396       .  A
C952        H957   1.085       .  S
C953        C954   1.409       .  A
C954        C955   1.507       .  S
C955        H959   1.102       .  S
C955        H960   1.107       .  S
C955        H961   1.106       .  S
C958        H962   1.110       .  S
C958        H964   1.111       .  S
C965        C966   1.397       .  A
C965        C970   1.397       .  A
C965       H2300   1.085       .  S
C966        C967   1.404       .  A
C967        C974   1.509       .  S
C967        C968   1.392       .  A
C968        C969   1.407       .  A
C968        H973   1.084       .  S
C969        C970   1.417       .  A
C970       C2299   1.506       .  S
C971       C2298   1.506       .  S
C971        H975   1.107       .  S
C971        H976   1.110       .  S
C971        H977   1.109       .  S
H972       C2293   1.085       .  S
C974        H978   1.110       .  S
C974        H979   1.111   1_554  S
C974        H980   1.111       .  S
C981        C982   1.402       .  A
C981        C986   1.376       .  A
C981        H988   1.083       .  S
C982       C2311   1.417       .  A
C983        C990   1.504       .  S
C983       C2310   1.417       .  A
C983        C984   1.403       .  A
C984       C2313   1.400       .  A
C984        H989   1.084       .  S
C985       C2312   1.400       .  A
C985        C986   1.407       .  A
C986        C987   1.507       .  S
C987        H991   1.111       .  S
C987        H992   1.108       .  S
C987        H993   1.107       .  S
C990        H994   1.110       .  S
C990        H995   1.109       .  S
C990        H996   1.111       .  S
C997        C998   1.538       .  S
C997       C1003   1.546       .  S
C997       C1001   1.514       .  S
C997       C1116   1.546       .  S
C998       H1005   1.079       .  S
C998        C999   1.371       .  D
C999       C1000   1.597       .  S
C999       C1058   1.544       .  S
C1000      C1004   1.580       .  S
C1000      C1002   1.606       .  S
C1000      H1006   1.110       .  S
C1001      H1007   1.078       .  S
C1001      C1002   1.361       .  D
C1002      C1032   1.532       .  S
C1003      H1008   1.085       .  S
C1003      C1004   1.374       .  D
C1004      C1090   1.533       .  S
C1009      C1010   1.545       .  S
C1009      C1015   1.532       .  S
C1009      C1013   1.566       .  S
C1009      C1136   1.562       .  S
C1010      H1017   1.086       .  S
C1010      C1011   1.371       .  D
C1011      C1012   1.593       .  S
C1011      C1105   1.542       .  S
C1012      C1016   1.595       .  S
C1012      C1014   1.589       .  S
C1012      H1018   1.110       .  S
C1013      H1019   1.086       .  S
C1013      C1014   1.383       .  D
C1014      C1047   1.565       .  S
C1015      H1020   1.084       .  S
C1015      C1016   1.366       .  D
C1016      C1078   1.539       .  S
O1021      C1029   1.278       .  A
O1021     Co1705   1.989   1_455  S
O1022      C1030   1.250       .  A
O1022     Co2370   1.944       .  S
O1024      C1032   1.336       .  A
O1025      C1031   1.233       .  A
O1025     Co1042   1.872       .  S
O1026      C1032   1.282       .  A
O1027      C1030   1.254       .  A
O1027     Co1044   1.989   1_565  S
O1028      C1029   1.279       .  A
C1029      C1266   1.488       .  S
C1030      C1298   1.443       .  S
C1031      C1250   1.432       .  S
O1033      C1046   1.247       .  A
O1033     Co1041   2.077       .  S
O1034      C1047   1.300       .  A
O1035      C1048   1.269       .  A
O1035     Co1043   1.912       .  S
O1036     Co1044   1.955       .  S
O1037     Co2370   1.979   1_545  S
O1038      C2376   1.279       .  A
O1038     Co1041   2.021       .  S
O1039      C1046   1.222       .  A
O1040      C1047   1.270       .  A
Co1041     O1685   1.990       .  S
Co1042     O2350   1.945   1_455  S
Co1042     O2365   1.980   1_465  S
Co1042     O2041   2.065   1_465  S
Co1043     O1709   1.951   1_456  S
O1045     Co2038   2.066   1_545  S
O1045     Co1707   1.950   1_554  S
C1046      C1234   1.463       .  S
C1048      O2366   1.279       .  A
C1048      C1314   1.477       .  S
C1049      C1282   1.470       .  S
O1050      C1058   1.293       .  A
O1050     Co1070   2.043       .  S
O1051      C1059   1.262       .  A
O1051     Co1071   1.996       .  S
O1052      C1060   1.255       .  A
O1053      C1061   1.275       .  A
O1054      C1060   1.271       .  A
O1054     Co1071   2.001       .  S
O1055      C1061   1.302       .  A
O1055     Co1070   2.089       .  S
O1056      C1059   1.258       .  A
O1056     Co1073   1.949       .  S
O1057      C1058   1.277       .  A
O1057     Co1072   2.043       .  S
C1059      C1218   1.472       .  S
C1060      C1170   1.463       .  S
C1061      C1237   1.483       .  S
O1062      C1075   1.310       .  A
O1062     Co1070   2.123       .  S
O1063      C1076   1.272       .  A
O1063     Co1071   1.962       .  S
O1064      C1077   1.264       .  A
O1064     Co1072   1.993       .  S
O1065      C1078   1.293       .  A
O1065     Co1073   2.089       .  S
O1066      C1078   1.267       .  A
O1066     Co1071   2.012       .  S
O1067      C1077   1.278       .  A
O1067     Co1070   1.994       .  S
O1068      C1075   1.258       .  A
O1069     Co1072   1.923   1_554  S
Co1070     O1074   2.029       .  S
Co1072     O1074   2.039       .  S
C1075      C1186   1.510       .  S
C1076      C1253   1.437       .  S
C1077      C1202   1.469       .  S
O1079      C1087   1.291       .  A
O1079     Co2427   2.064   1_455  S
O1080      C1088   1.268       .  A
O1080     Co2428   2.000       .  S
O1081      C1089   1.254       .  A
O1081     Co1101   1.935       .  S
O1082      C1090   1.271       .  A
O1082     Co1102   2.017       .  S
O1083      C1089   1.275       .  A
O1083     Co1100   2.023       .  S
O1084      C1090   1.273       .  A
O1084     Co1099   2.045       .  S
O1085      C1088   1.249       .  A
O1085     Co1102   1.917       .  S
O1086      C1087   1.274       .  A
O1086     Co1101   1.907       .  S
C1087      C1205   1.481       .  S
C1088      C1301   1.471       .  S
C1089      C1154   1.462       .  S
O1091      C1104   1.271       .  A
O1091     Co1099   2.005       .  S
O1092      C1105   1.259       .  A
O1092     Co1100   2.005       .  S
O1093      C1106   1.258       .  A
O1093     Co1101   1.972       .  S
O1094      C1107   1.270       .  A
O1094     Co1102   1.953       .  S
O1095      C1107   1.268       .  A
O1095     Co2428   1.978       .  S
O1096      C2434   1.259       .  A
O1096     Co1099   1.948       .  S
O1097      C1104   1.257       .  A
O1097     Co1102   1.927       .  S
O1098      C1105   1.282       .  A
O1098     Co1101   2.073       .  S
Co1099     O2407   2.064       .  S
Co1099     O1103   2.102       .  S
Co1100     O2408   2.002   1_455  S
Co1100     O2423   1.978   1_455  S
Co1100     O2431   2.082   1_455  S
Co1101     O2431   1.923   1_455  S
Co1102     O1103   1.980       .  S
O1103     Co2428   2.081       .  S
O1103     Co2429   1.924       .  S
C1104      C1138   1.453       .  S
C1106      O2424   1.260       .  A
C1106      C1317   1.453       .  S
C1107      C1221   1.454       .  S
O1108      C1116   1.275       .  A
O1109      C1117   1.237       .  A
O1110      C1118   1.247       .  A
O1110     Co1130   1.940       .  S
O1111      C1119   1.290       .  A
O1111     Co1131   2.035       .  S
O1112      C1118   1.280       .  A
O1112     Co1129   2.041   1_565  S
O1113      C1119   1.275       .  A
O1113     Co1128   1.958       .  S
O1114      C1117   1.219       .  A
O1114     Co1131   1.961       .  S
O1115      C1116   1.251       .  A
O1115     Co1130   1.961       .  S
C1117      C1285   1.455       .  S
C1118      C1173   1.463       .  S
C1119      C1141   1.472       .  S
O1120      C1133   1.259       .  A
O1120     Co1128   1.961       .  S
O1121      C1134   1.262       .  A
O1121     Co1129   1.973   1_565  S
O1122      C1135   1.274       .  A
O1122     Co1130   2.045       .  S
O1123      C1136   1.313       .  A
O1123     Co1131   2.065       .  S
O1124      C1136   1.289       .  A
O1125      C1135   1.245       .  A
O1126      C1133   1.258       .  A
O1126     Co1131   1.979       .  S
O1127      C1134   1.265       .  A
O1127     Co1130   1.998       .  S
Co1129     O1132   2.107   1_545  S
Co1130     O1132   2.047       .  S
C1133      C1189   1.462       .  S
C1134      C1157   1.479       .  S
C1135      C1269   1.471       .  S
C1137      C1138   1.397       .  A
C1137      C1142   1.399       .  A
C1137      H1144   1.085       .  S
C1138      C1139   1.409       .  A
C1139      C1146   1.503       .  S
C1139      C1140   1.396       .  A
C1140      C1141   1.399       .  A
C1140      H1145   1.080       .  S
C1141      C1142   1.406       .  A
C1142      C1143   1.489       .  S
C1143      H1147   1.109       .  S
C1143      H1148   1.108       .  S
C1143      H1149   1.109       .  S
C1146      H1150   1.103       .  S
C1146      H1151   1.109       .  S
C1146      H1152   1.108       .  S
C1153      C1154   1.390       .  A
C1153      C1158   1.397       .  A
C1153      H1160   1.085       .  S
C1154      C1155   1.416       .  A
C1155      C1162   1.507       .  S
C1155      C1156   1.402       .  A
C1156      C1157   1.400       .  A
C1156      H1161   1.085       .  S
C1157      C1158   1.426       .  A
C1158      C1159   1.504       .  S
C1159      H1163   1.109       .  S
C1159      H1164   1.107       .  S
C1159      H1165   1.102       .  S
C1162      H1166   1.107       .  S
C1162      H1167   1.110       .  S
C1162      H1168   1.110       .  S
C1169      C1170   1.411       .  A
C1169      C1174   1.408       .  A
C1169      H1176   1.084       .  S
C1170      C1171   1.404       .  A
C1171      C1178   1.503       .  S
C1171      C1172   1.390       .  A
C1172      C1173   1.403       .  A
C1172      H1177   1.085       .  S
C1173      C1174   1.405       .  A
C1174      C1175   1.506       .  S
C1175      H1179   1.111       .  S
C1175      H1180   1.108       .  S
C1175      H1181   1.108       .  S
C1178      H1182   1.109       .  S
C1178      H1183   1.110       .  S
C1178      H1184   1.110       .  S
C1185      C1186   1.413       .  A
C1185      C1190   1.398       .  A
C1185      H1192   1.084       .  S
C1186      C1187   1.414       .  A
C1187      C1194   1.479       .  S
C1187      C1188   1.409       .  A
C1188      C1189   1.398       .  A
C1188      H1193   1.084       .  S
C1189      C1190   1.405       .  A
C1190      C1191   1.501       .  S
C1191      H1195   1.101       .  S
C1191      H1196   1.111       .  S
C1191      H1197   1.111       .  S
C1194      H1198   1.094       .  S
C1194      H1199   1.099       .  S
C1194      H1200   1.111       .  S
C1201      C1202   1.399       .  A
C1201      C1206   1.402       .  A
C1201      H1208   1.085       .  S
C1202      C1203   1.410       .  A
C1203      C1210   1.506       .  S
C1203      C1204   1.402       .  A
C1204      C1205   1.408       .  A
C1204      H1209   1.084       .  S
C1205      C1206   1.423       .  A
C1206      C1207   1.508       .  S
C1207      H1211   1.109       .  S
C1207      H1212   1.101       .  S
C1207      H1213   1.110       .  S
C1210      H1214   1.106       .  S
C1210      H1215   1.097       .  S
C1210      H1216   1.111       .  S
C1217      C1218   1.406       .  A
C1217      C1222   1.392       .  A
C1217      H1224   1.084       .  S
C1218      C1219   1.419       .  A
C1219      C1226   1.507       .  S
C1219      C1220   1.394       .  A
C1220      C1221   1.398       .  A
C1220      H1225   1.085       .  S
C1221      C1222   1.407       .  A
C1222      C1223   1.508       .  S
C1223      H1227   1.111       .  S
C1223      H1228   1.111       .  S
C1223      H1229   1.110       .  S
C1226      H1230   1.104       .  S
C1226      H1231   1.109       .  S
C1226      H1232   1.111       .  S
C1233      C1234   1.402       .  A
C1233      C1238   1.398       .  A
C1233      H1240   1.079       .  S
C1234      C1235   1.406       .  A
C1235      C1242   1.505       .  S
C1235      C1236   1.402       .  A
C1236      C1237   1.409       .  A
C1236      H1241   1.083       .  S
C1237      C1238   1.415       .  A
C1238      C1239   1.509       .  S
C1239      H1243   1.111       .  S
C1239      H1244   1.110       .  S
C1239      H1245   1.109       .  S
C1242      H1246   1.106       .  S
C1242      H1248   1.111       .  S
C1249      C1250   1.387       .  A
C1249      C1254   1.380       .  A
C1249      H1256   1.085       .  S
C1250      C1251   1.424       .  A
C1251      C1252   1.376       .  A
C1252      C1253   1.391       .  A
C1253      C1254   1.414       .  A
C1254      C1255   1.499       .  S
C1255      H1259   1.110       .  S
C1255      H1261   1.101       .  S
C1258      H1262   1.102   1_554  S
C1258      H1264   1.111       .  S
C1265      C1266   1.399       .  A
C1265      C1270   1.398       .  A
C1265      H1272   1.078       .  S
C1267      C1274   1.502       .  S
C1267      C1268   1.413       .  A
C1268      H1273   1.084       .  S
C1269      C1270   1.413       .  A
C1270      C1271   1.505       .  S
C1271      H1275   1.108       .  S
C1271      H1276   1.110       .  S
C1271      H1277   1.106       .  S
C1274      H1278   1.105       .  S
C1274      H1279   1.107       .  S
C1274      H1280   1.108       .  S
C1281      C1282   1.402       .  A
C1281      C1286   1.391       .  A
C1281      H1288   1.085       .  S
C1282      C1283   1.422       .  A
C1283      C1284   1.400       .  A
C1284      C1285   1.398       .  A
C1284      H1289   1.085       .  S
C1285      C1286   1.409       .  A
C1286      C1287   1.507       .  S
C1287      H1291   1.101       .  S
C1287      H1292   1.107       .  S
C1287      H1293   1.106       .  S
C1290      H1294   1.110       .  S
C1290      H1296   1.111       .  S
C1297      C1298   1.398       .  A
C1297      C1302   1.397       .  A
C1297      H2632   1.085       .  S
C1298      C1299   1.404       .  A
C1299      C1306   1.509       .  S
C1299      C1300   1.392       .  A
C1300      C1301   1.406       .  A
C1300      H1305   1.084       .  S
C1301      C1302   1.417       .  A
C1302      C2631   1.506       .  S
C1303      C2630   1.506       .  S
C1303      H1307   1.107       .  S
C1303      H1308   1.110       .  S
C1303      H1309   1.110       .  S
H1304      C2625   1.085       .  S
C1306      H1310   1.110       .  S
C1306      H1311   1.111       .  S
C1306      H1312   1.111       .  S
C1313      C1314   1.408       .  A
C1313      C1318   1.375       .  A
C1313      H1320   1.083       .  S
C1314      C2643   1.424       .  A
C1315      C1322   1.509       .  S
C1315      C2642   1.424       .  A
C1315      C1316   1.405       .  A
C1316      C2645   1.400       .  A
C1316      H1321   1.084       .  S
C1317      C2644   1.400       .  A
C1317      C1318   1.403       .  A
C1318      C1319   1.509       .  S
C1319      H1323   1.111       .  S
C1319      H1324   1.108       .  S
C1319      H1325   1.106       .  S
C1322      H1326   1.109       .  S
C1322      H1327   1.094       .  S
C1322      H1328   1.111       .  S
C1329      C1330   1.541       .  S
C1329      C1335   1.540       .  S
C1329      C1333   1.515       .  S
C1329      C1448   1.549       .  S
C1330      H1337   1.079       .  S
C1330      C1331   1.373       .  D
C1331      C1332   1.591       .  S
C1331      C1390   1.541       .  S
C1332      C1336   1.591       .  S
C1332      C1334   1.611       .  S
C1332      H1338   1.110       .  S
C1333      H1339   1.069       .  S
C1333      C1334   1.363       .  D
C1334      C1364   1.544       .  S
C1335      H1340   1.085       .  S
C1335      C1336   1.374       .  D
C1336      C1422   1.538       .  S
C1341      C1342   1.545       .  S
C1341      C1347   1.532       .  S
C1341      C1345   1.566       .  S
C1341      C1468   1.562       .  S
C1342      H1349   1.086       .  S
C1342      C1343   1.371       .  D
C1343      C1344   1.591       .  S
C1343      C1437   1.540       .  S
C1344      C1348   1.592       .  S
C1344      C1346   1.584       .  S
C1344      H1350   1.110       .  S
C1345      H1351   1.086       .  S
C1345      C1346   1.384       .  D
C1346      C1379   1.559       .  S
C1347      H1352   1.084       .  S
C1347      C1348   1.366       .  D
C1348      C1410   1.535       .  S
O1353      C1361   1.262       .  A
O1354      C1362   1.250       .  A
O1355      C1695   1.265       .  A
O1355     Co2039   1.983       .  S
O1356      C1364   1.307       .  A
O1356     Co1708   2.148       .  S
O1357      C1363   1.233       .  A
O1357     Co1374   1.873       .  S
O1358      C1364   1.258       .  A
O1358     Co2037   1.976       .  S
O1359      C1362   1.254       .  A
O1359     Co1376   1.991       .  S
O1360      C1361   1.284       .  A
O1360     Co2039   2.039       .  S
C1361      C1598   1.478       .  S
C1362      C1630   1.444       .  S
C1363      O1687   1.266       .  A
C1363      C1582   1.430       .  S
O1365      C1378   1.247       .  A
O1365     Co1373   2.076   1_545  S
O1366      C1379   1.300       .  A
O1366     Co2038   2.130   1_545  S
O1367      C1380   1.267       .  A
O1367     Co1375   1.909       .  S
O1368      C2045   1.249       .  A
O1368     Co1376   1.954       .  S
O1369      C2045   1.263       .  A
O1370     Co1373   2.022   1_445  S
O1371      C1378   1.222       .  A
O1371     Co2372   1.940       .  S
O1372      C1379   1.271       .  A
O1372     Co1707   2.000   1_554  S
Co1373     O2022   1.918       .  S
Co1373     O2041   2.055   1_565  S
Co1374     O2030   2.127       .  S
Co1375     O2019   1.996   1_545  S
Co1375     O2024   2.012   1_545  S
Co1375     O1704   1.998       .  S
Co1376     O1688   2.229   1_554  S
Co1376     O2367   1.941   1_554  S
Co1376     O1709   2.049       .  S
O1377     Co1708   2.047       .  S
O1377     Co2037   2.028       .  S
C1378      C1566   1.464       .  S
C1380      C1646   1.471       .  S
C1381      O2032   1.250       .  A
C1381      O2033   1.263       .  A
C1381      C1614   1.470       .  S
O1382      C1390   1.293       .  A
O1382     Co1402   2.040       .  S
O1383      C1391   1.262       .  A
O1383     Co1403   1.995       .  S
O1384      C1392   1.256       .  A
O1384     Co1736   1.946   1_554  S
O1385      C1393   1.274       .  A
O1385     Co1737   1.874       .  S
O1386      C1392   1.271       .  A
O1386     Co1403   2.000       .  S
O1387      C1393   1.302       .  A
O1387     Co1402   2.088       .  S
O1388      C1391   1.259       .  A
O1388     Co1405   1.952   1_554  S
O1389      C1390   1.277       .  A
O1389     Co1404   2.041       .  S
C1391      C1550   1.473       .  S
C1392      C1502   1.463       .  S
C1393      C1569   1.482       .  S
O1394      C1407   1.310       .  A
O1394     Co1402   2.124       .  S
O1395      C1408   1.271       .  A
O1395     Co1403   1.961       .  S
O1396      C1409   1.263       .  A
O1396     Co1404   1.990       .  S
O1397      C1410   1.293       .  A
O1397     Co1405   2.088   1_554  S
O1398      C1410   1.266       .  A
O1398     Co1403   2.008       .  S
O1399      C1409   1.278       .  A
O1399     Co1402   1.992       .  S
O1400      C1407   1.258       .  A
O1400     Co1737   1.921       .  S
O1401      C1740   1.256       .  A
O1401     Co1404   1.927       .  S
Co1402     O1406   2.027       .  S
Co1403     O1738   2.055   1_554  S
Co1404     O1716   1.944       .  S
Co1404     O1406   2.038       .  S
Co1405     O1717   1.874       .  S
Co1405     O1732   1.922       .  S
Co1405     O1738   1.875       .  S
O1406     Co1735   2.054       .  S
O1406     Co1737   1.875       .  S
C1407      C1518   1.510       .  S
C1408      O1733   1.254       .  A
C1408      C1585   1.435       .  S
C1409      C1534   1.465       .  S
O1411      C1419   1.290       .  A
O1412      C1420   1.269       .  A
O1413      C1421   1.254       .  A
O1413     Co1433   1.935       .  S
O1414      C1422   1.273       .  A
O1414     Co1434   2.022       .  S
O1415      C1421   1.275       .  A
O1415     Co1432   2.025       .  S
O1416      C1422   1.272       .  A
O1416     Co1431   2.047       .  S
O1417      C1420   1.250       .  A
O1417     Co1434   1.918       .  S
O1418      C1419   1.273       .  A
O1418     Co1433   1.902       .  S
C1419      C1537   1.477       .  S
C1420      C1633   1.472       .  S
C1421      C1486   1.463       .  S
O1423      C1436   1.272       .  A
O1423     Co1431   2.004       .  S
O1424      C1437   1.259       .  A
O1424     Co1432   2.005       .  S
O1425      C1438   1.258       .  A
O1425     Co1433   1.973       .  S
O1426      C1439   1.272       .  A
O1426     Co1434   1.958       .  S
O1427      C1439   1.269       .  A
O1428     Co1431   1.946   1_455  S
O1429      C1436   1.258       .  A
O1429     Co1434   1.930       .  S
O1430      C1437   1.280       .  A
O1430     Co1433   2.070       .  S
Co1431     O1435   2.102       .  S
Co1434     O1435   1.979       .  S
C1436      C1470   1.455       .  S
C1438      C1649   1.452       .  S
C1439      C1553   1.455       .  S
O1440      C1448   1.276       .  A
O1440     Co2124   2.061       .  S
O1441      C1449   1.236       .  A
O1441     Co2125   2.014       .  S
O1442      C1450   1.248       .  A
O1442     Co1462   1.939       .  S
O1443      C1451   1.290       .  A
O1443     Co1463   2.035       .  S
O1444      C1450   1.281       .  A
O1444     Co1461   2.041       .  S
O1445      C1451   1.275       .  A
O1445     Co1460   1.961       .  S
O1446      C1449   1.218       .  A
O1446     Co1463   1.959       .  S
O1447      C1448   1.254       .  A
O1447     Co1462   1.969       .  S
C1449      C1617   1.452       .  S
C1450      C1505   1.462       .  S
C1451      C1473   1.473       .  S
O1452      C1465   1.259       .  A
O1452     Co1460   1.962       .  S
O1453      C1466   1.262       .  A
O1453     Co1461   1.972       .  S
O1454      C1467   1.271       .  A
O1454     Co1462   2.032       .  S
O1455      C1468   1.313       .  A
O1455     Co1463   2.063       .  S
O1456      C1468   1.290       .  A
O1456     Co2125   1.986       .  S
O1457      C1467   1.246       .  A
O1457     Co2124   1.908       .  S
O1458      C1465   1.258       .  A
O1458     Co1463   1.979       .  S
O1459      C1466   1.268       .  A
O1459     Co1462   2.006       .  S
Co1460     O2104   2.063   1_545  S
Co1460     O2121   1.917   1_545  S
Co1460     O2128   2.055   1_545  S
Co1461     O2105   2.013       .  S
Co1461     O2120   1.992       .  S
Co1461     O1464   2.109       .  S
Co1462     O1464   2.049       .  S
Co1463     O2128   2.038   1_545  S
O1464     Co2124   2.055       .  S
O1464     Co2127   2.041       .  S
C1465      C1521   1.462       .  S
C1466      C1489   1.480       .  S
C1467      C1601   1.458       .  S
C1469      C1470   1.397       .  A
C1469      C1474   1.398       .  A
C1469      H1476   1.085       .  S
C1470      C1471   1.409       .  A
C1471      C1478   1.504       .  S
C1471      C1472   1.398       .  A
C1472      C1473   1.400       .  A
C1472      H1477   1.081       .  S
C1473      C1474   1.407       .  A
C1474      C1475   1.490       .  S
C1475      H1479   1.108       .  S
C1475      H1480   1.108       .  S
C1475      H1481   1.109       .  S
C1478      H1482   1.103       .  S
C1478      H1483   1.108       .  S
C1478      H1484   1.107       .  S
C1485      C1486   1.390       .  A
C1485      C1490   1.397       .  A
C1485      H1492   1.085       .  S
C1486      C1487   1.416       .  A
C1487      C1494   1.508       .  S
C1487      C1488   1.403       .  A
C1488      C1489   1.402       .  A
C1488      H1493   1.084       .  S
C1489      C1490   1.425       .  A
C1490      C1491   1.504       .  S
C1491      H1495   1.110       .  S
C1491      H1496   1.107       .  S
C1491      H1497   1.103       .  S
C1494      H1498   1.106       .  S
C1494      H1499   1.110       .  S
C1494      H1500   1.110       .  S
C1501      C1502   1.410       .  A
C1501      C1506   1.408       .  A
C1501      H1508   1.084       .  S
C1502      C1503   1.404       .  A
C1503      C1510   1.502       .  S
C1503      C1504   1.390       .  A
C1504      C1505   1.402       .  A
C1504      H1509   1.085       .  S
C1505      C1506   1.405       .  A
C1506      C1507   1.505       .  S
C1507      H1511   1.111       .  S
C1507      H1512   1.108       .  S
C1507      H1513   1.108       .  S
C1510      H1514   1.109       .  S
C1510      H1515   1.110       .  S
C1510      H1516   1.110       .  S
C1517      C1518   1.413       .  A
C1517      C1522   1.398       .  A
C1517      H1524   1.084       .  S
C1518      C1519   1.414       .  A
C1519      C1526   1.478       .  S
C1519      C1520   1.408       .  A
C1520      C1521   1.398       .  A
C1520      H1525   1.084       .  S
C1521      C1522   1.405       .  A
C1522      C1523   1.501       .  S
C1523      H1527   1.102       .  S
C1523      H1528   1.110       .  S
C1523      H1529   1.111       .  S
C1526      H1530   1.094       .  S
C1526      H1531   1.099       .  S
C1526      H1532   1.111       .  S
C1533      C1534   1.398       .  A
C1533      C1538   1.400       .  A
C1533      H1540   1.085       .  S
C1534      C1535   1.410       .  A
C1535      C1542   1.506       .  S
C1535      C1536   1.401       .  A
C1536      C1537   1.407       .  A
C1536      H1541   1.085       .  S
C1537      C1538   1.422       .  A
C1538      C1539   1.508       .  S
C1539      H1543   1.110       .  S
C1539      H1544   1.100       .  S
C1539      H1545   1.108       .  S
C1542      H1546   1.106       .  S
C1542      H1547   1.096       .  S
C1542      H1548   1.111       .  S
C1549      C1550   1.406       .  A
C1549      C1554   1.393       .  A
C1549      H1556   1.084       .  S
C1550      C1551   1.420       .  A
C1551      C1558   1.508       .  S
C1551      C1552   1.394       .  A
C1552      C1553   1.397       .  A
C1552      H1557   1.085       .  S
C1553      C1554   1.408       .  A
C1554      C1555   1.508       .  S
C1555      H1559   1.111       .  S
C1555      H1560   1.111       .  S
C1555      H1561   1.110       .  S
C1558      H1562   1.104       .  S
C1558      H1563   1.109       .  S
C1558      H1564   1.111       .  S
C1565      C1566   1.402       .  A
C1565      C1570   1.398       .  A
C1565      H1572   1.079       .  S
C1566      C1567   1.406       .  A
C1567      C1574   1.506       .  S
C1567      C1568   1.402       .  A
C1568      C1569   1.410       .  A
C1568      H1573   1.083       .  S
C1569      C1570   1.415       .  A
C1570      C1571   1.510       .  S
C1571      H1575   1.111       .  S
C1571      H1576   1.110       .  S
C1571      H1577   1.109       .  S
C1574      H1578   1.107       .  S
C1574      H1911   1.110       .  S
C1574      H1580   1.111       .  S
H1579      C1906   1.109       .  S
C1581      C1582   1.387       .  A
C1581      C1586   1.379       .  A
C1581      H1588   1.085       .  S
C1582      C1583   1.423       .  A
C1583      C1922   1.517       .  S
C1583      C1584   1.376       .  A
C1584      C1585   1.391       .  A
C1584      H1921   1.085       .  S
C1585      C1586   1.414       .  A
C1586      C1587   1.499       .  S
C1587      H1591   1.110       .  S
C1587      H1924   1.107       .  S
C1587      H1593   1.101       .  S
H1589      C1916   1.085       .  S
C1590      C1915   1.515       .  S
C1590      H1594   1.107       .  S
C1590      H1927   1.110       .  S
C1590      H1596   1.111       .  S
H1592      C1919   1.108       .  S
H1595      C1922   1.109       .  S
C1597      C1598   1.398       .  A
C1597      C1602   1.396       .  A
C1597      H1604   1.080       .  S
C1598      C2263   1.418       .  A
C1599      C1606   1.504       .  S
C1599      C2262   1.415       .  A
C1599      C1600   1.413       .  A
C1600      C2265   1.404       .  A
C1600      H1605   1.084       .  S
C1601      C2264   1.397       .  A
C1601      C1602   1.413       .  A
C1602      C1603   1.504       .  S
C1603      H1607   1.108       .  S
C1603      H1608   1.110       .  S
C1603      H1609   1.106       .  S
C1606      H1610   1.106       .  S
C1606      H1611   1.107       .  S
C1606      H1612   1.108       .  S
C1613      C1614   1.403       .  A
C1613      C1618   1.391       .  A
C1613      H1620   1.085       .  S
C1614      C1615   1.423       .  A
C1615      C2286   1.512       .  S
C1615      C1616   1.398       .  A
C1616      C1617   1.397       .  A
C1616      H1621   1.085       .  S
C1617      C1618   1.409       .  A
C1618      C1619   1.507       .  S
C1619      H1623   1.101       .  S
C1619      H1624   1.107   1_545  S
C1619      H1625   1.106       .  S
C1622      C2279   1.512       .  S
C1622      H1626   1.110       .  S
C1622      H2291   1.107       .  S
C1622      H1628   1.111       .  S
H1627      C2286   1.107       .  S
C1629      C1630   1.398       .  A
C1629      C1634   1.398       .  A
C1630      C1631   1.404       .  A
C1631      C1638   1.509       .  S
C1631      C1632   1.393       .  A
C1632      C1633   1.406       .  A
C1632      H1637   1.084       .  S
C1633      C1634   1.417       .  A
C1635      H1639   1.107       .  S
C1635      H1640   1.110       .  S
C1635      H1641   1.110       .  S
C1638      H1642   1.110       .  S
C1638      H1643   1.111       .  S
C1638      H1644   1.111       .  S
C1645      C1646   1.405       .  A
C1645      C1650   1.374       .  A
C1645      H1652   1.083       .  S
C1647      C1654   1.509       .  S
C1647      C1648   1.405       .  A
C1648      H1653   1.084       .  S
C1649      C1650   1.406       .  A
C1650      C1651   1.509       .  S
C1651      H1655   1.111       .  S
C1651      H1656   1.108       .  S
C1651      H1657   1.106       .  S
C1654      H1658   1.109   1_455  S
C1654      H1659   1.094       .  S
C1654      H1660   1.111       .  S
C1661      C1662   1.539       .  S
C1661      C1667   1.546       .  S
C1661      C1665   1.515       .  S
C1661      C1780   1.548       .  S
C1662      H1669   1.079       .  S
C1662      C1663   1.372       .  D
C1663      C1664   1.596       .  S
C1663      C1722   1.545       .  S
C1664      C1668   1.579       .  S
C1664      C1666   1.606       .  S
C1664      H1670   1.110       .  S
C1665      H1671   1.078       .  S
C1665      C1666   1.362       .  D
C1666      C1696   1.532       .  S
C1667      H1672   1.085       .  S
C1667      C1668   1.375       .  D
C1668      C1754   1.533       .  S
C1673      C1674   1.545       .  S
C1673      C1679   1.531       .  S
C1673      C1677   1.566       .  S
C1673      C1800   1.561       .  S
C1674      H1681   1.086       .  S
C1674      C1675   1.372       .  D
C1675      C1676   1.590       .  S
C1675      C1769   1.539       .  S
C1676      C1680   1.591       .  S
C1676      C1678   1.583       .  S
C1676      H1682   1.110       .  S
C1677      H1683   1.086       .  S
C1677      C1678   1.384       .  D
C1678      C1711   1.558       .  S
C1679      H1684   1.084       .  S
C1679      C1680   1.366       .  D
C1680      C1742   1.534       .  S
O1685      C1693   1.278       .  A
O1686      C1694   1.252       .  A
O1687     Co2371   1.993   1_554  S
O1688      C1696   1.336       .  A
O1689      C1695   1.236       .  A
O1689     Co1706   1.877       .  S
O1690      C1696   1.283       .  A
O1690     Co2369   1.918       .  S
O1691      C1694   1.261       .  A
O1691     Co1708   1.999       .  S
O1692      C1693   1.280       .  A
O1692     Co2371   2.014       .  S
C1693      C1930   1.489       .  S
C1694      C1962   1.444       .  S
C1695      C1914   1.426       .  S
O1697      C1710   1.247       .  A
O1697     Co1705   2.076   1_545  S
O1698      C1711   1.300       .  A
O1698     Co2370   2.130   1_545  S
O1699      C1712   1.268       .  A
O1699     Co1707   1.911       .  S
O1700      C2377   1.253       .  A
O1700     Co1708   1.960       .  S
O1701      C2377   1.264       .  A
O1702     Co1705   2.022   1_445  S
O1703      C1710   1.222       .  A
O1703     Co2040   1.940   1_556  S
O1704      C1711   1.271       .  A
Co1705     O2354   1.917       .  S
Co1705     O2373   2.051   1_566  S
Co1706     O2362   2.135       .  S
Co1707     O2351   1.996   1_546  S
Co1707     O2356   2.013   1_545  S
Co1708     O2035   1.942       .  S
O1709     Co2369   2.053   1_554  S
C1710      C1898   1.463       .  S
C1712      C1978   1.477       .  S
C1713      O2364   1.250       .  A
C1713      O2365   1.263       .  A
C1713      C1946   1.469       .  S
O1714      C1722   1.294       .  A
O1714     Co1734   2.044       .  S
O1715      C1723   1.262       .  A
O1715     Co1735   1.995       .  S
O1716      C1724   1.255       .  A
O1717      C1725   1.275       .  A
O1718      C1724   1.271       .  A
O1718     Co1735   2.001       .  S
O1719      C1725   1.303       .  A
O1719     Co1734   2.090       .  S
O1720      C1723   1.258       .  A
O1720     Co1737   1.951       .  S
O1721      C1722   1.277       .  A
O1721     Co1736   2.043       .  S
C1723      C1882   1.472       .  S
C1724      C1834   1.462       .  S
C1725      C1901   1.483       .  S
O1726      C1739   1.310       .  A
O1726     Co1734   2.122       .  S
O1727      C1740   1.270       .  A
O1727     Co1735   1.959       .  S
O1728      C1741   1.264       .  A
O1728     Co1736   1.993       .  S
O1729      C1742   1.292       .  A
O1729     Co1737   2.086       .  S
O1730      C1742   1.265       .  A
O1730     Co1735   2.006       .  S
O1731      C1741   1.278       .  A
O1731     Co1734   1.993       .  S
O1732      C1739   1.258       .  A
O1733     Co1736   1.923   1_554  S
Co1734     O1738   2.029       .  S
Co1736     O1738   2.039       .  S
C1739      C1850   1.510       .  S
C1740      C1917   1.435       .  S
C1741      C1866   1.468       .  S
O1743      C1751   1.291       .  A
O1744      C1752   1.268       .  A
O1745      C1753   1.254       .  A
O1745     Co1765   1.935       .  S
O1746      C1754   1.271       .  A
O1746     Co1766   2.015       .  S
O1747      C1753   1.274       .  A
O1747     Co1764   2.021       .  S
O1748      C1754   1.273       .  A
O1748     Co1763   2.046       .  S
O1749      C1752   1.249       .  A
O1749     Co1766   1.917       .  S
O1750      C1751   1.273       .  A
O1750     Co1765   1.904       .  S
C1751      C1869   1.481       .  S
C1752      C1965   1.472       .  S
C1753      C1818   1.461       .  S
O1755      C1768   1.271       .  A
O1755     Co1763   2.004       .  S
O1756      C1769   1.259       .  A
O1756     Co1764   2.004       .  S
O1757      C1770   1.258       .  A
O1757     Co1765   1.972       .  S
O1758      C1771   1.271       .  A
O1758     Co1766   1.955       .  S
O1759      C1771   1.268       .  A
O1760     Co1763   1.947   1_455  S
O1761      C1768   1.257       .  A
O1761     Co1766   1.929       .  S
O1762      C1769   1.281       .  A
O1762     Co1765   2.070       .  S
Co1763     O1767   2.101       .  S
Co1766     O1767   1.976       .  S
C1768      C1802   1.454       .  S
C1770      C1981   1.452       .  S
C1771      C1885   1.452       .  S
O1772      C1780   1.276       .  A
O1772     Co2456   2.065       .  S
O1773      C1781   1.237       .  A
O1773     Co2457   2.014       .  S
O1774      C1782   1.249       .  A
O1774     Co1794   1.944       .  S
O1775      C1783   1.290       .  A
O1775     Co1795   2.034       .  S
O1776      C1782   1.279       .  A
O1776     Co1793   2.039       .  S
O1777      C1783   1.275       .  A
O1777     Co1792   1.960       .  S
O1778      C1781   1.218       .  A
O1778     Co1795   1.959       .  S
O1779      C1780   1.252       .  A
O1779     Co1794   1.963       .  S
C1781      C1949   1.452       .  S
C1782      C1837   1.463       .  S
C1783      C1805   1.473       .  S
O1784      C1797   1.260       .  A
O1784     Co1792   1.962       .  S
O1785      C1798   1.262       .  A
O1785     Co1793   1.974       .  S
O1786      C1799   1.275       .  A
O1786     Co1794   2.047       .  S
O1787      C1800   1.312       .  A
O1787     Co1795   2.062       .  S
O1788      C1800   1.290       .  A
O1788     Co2457   1.986       .  S
O1789      C1799   1.245       .  A
O1789     Co2456   1.915       .  S
O1790      C1797   1.257       .  A
O1790     Co1795   1.978       .  S
O1791      C1798   1.265       .  A
O1791     Co1794   1.995       .  S
Co1792     O2436   2.064   1_545  S
Co1792     O2453   1.917   1_545  S
Co1792     O2460   2.054   1_545  S
Co1793     O2437   2.018       .  S
Co1793     O2452   1.982       .  S
Co1793     O1796   2.105       .  S
Co1794     O1796   2.047       .  S
Co1795     O2460   2.038   1_545  S
O1796     Co2456   2.053       .  S
O1796     Co2459   2.038       .  S
C1797      C1853   1.462       .  S
C1798      C1821   1.478       .  S
C1799      C1933   1.472       .  S
C1801      C1802   1.397       .  A
C1801      C1806   1.399       .  A
C1801      H1808   1.085       .  S
C1802      C1803   1.409       .  A
C1803      C1810   1.503       .  S
C1803      C1804   1.397       .  A
C1804      C1805   1.400       .  A
C1804      H1809   1.081       .  S
C1805      C1806   1.407       .  A
C1806      C1807   1.489       .  S
C1807      H1811   1.109       .  S
C1807      H1812   1.107       .  S
C1807      H1813   1.109       .  S
C1810      H1814   1.103       .  S
C1810      H1815   1.109       .  S
C1810      H1816   1.108       .  S
C1817      C1818   1.389       .  A
C1817      C1822   1.395       .  A
C1817      H1824   1.085       .  S
C1818      C1819   1.416       .  A
C1819      C1826   1.507       .  S
C1819      C1820   1.402       .  A
C1820      C1821   1.401       .  A
C1820      H1825   1.085       .  S
C1821      C1822   1.426       .  A
C1822      C1823   1.503       .  S
C1823      H1827   1.110       .  S
C1823      H1828   1.108       .  S
C1823      H1829   1.100       .  S
C1826      H1830   1.107       .  S
C1826      H1831   1.110       .  S
C1826      H1832   1.110       .  S
C1833      C1834   1.410       .  A
C1833      C1838   1.407       .  A
C1833      H1840   1.084       .  S
C1834      C1835   1.403       .  A
C1835      C1842   1.503       .  S
C1835      C1836   1.389       .  A
C1836      C1837   1.403       .  A
C1836      H1841   1.085       .  S
C1837      C1838   1.410       .  A
C1838      C1839   1.508       .  S
C1839      H1843   1.106       .  S
C1839      H1844   1.105       .  S
C1839      H1845   1.104       .  S
C1842      H1846   1.109       .  S
C1842      H1847   1.110       .  S
C1842      H1848   1.110       .  S
C1849      C1850   1.413       .  A
C1849      C1854   1.398       .  A
C1849      H1856   1.084       .  S
C1850      C1851   1.414       .  A
C1851      C1858   1.479       .  S
C1851      C1852   1.409       .  A
C1852      C1853   1.399       .  A
C1852      H1857   1.084       .  S
C1853      C1854   1.405       .  A
C1854      C1855   1.501       .  S
C1855      H1859   1.102       .  S
C1855      H1860   1.110       .  S
C1855      H1861   1.111       .  S
C1858      H1862   1.094       .  S
C1858      H1863   1.099       .  S
C1858      H1864   1.111       .  S
C1865      C1866   1.399       .  A
C1865      C1870   1.402       .  A
C1865      H1872   1.085       .  S
C1866      C1867   1.410       .  A
C1867      C1874   1.506       .  S
C1867      C1868   1.402       .  A
C1868      C1869   1.408       .  A
C1868      H1873   1.085       .  S
C1869      C1870   1.423       .  A
C1870      C1871   1.508       .  S
C1871      H1875   1.109       .  S
C1871      H1876   1.101       .  S
C1871      H1877   1.109       .  S
C1874      H1878   1.106       .  S
C1874      H1879   1.097       .  S
C1874      H1880   1.111       .  S
C1881      C1882   1.406       .  A
C1881      C1886   1.392       .  A
C1881      H1888   1.084       .  S
C1882      C1883   1.420       .  A
C1883      C1890   1.508       .  S
C1883      C1884   1.393       .  A
C1884      C1885   1.397       .  A
C1884      H1889   1.085       .  S
C1885      C1886   1.407       .  A
C1886      C1887   1.508       .  S
C1887      H1891   1.111       .  S
C1887      H1892   1.111       .  S
C1887      H1893   1.110       .  S
C1890      H1894   1.104       .  S
C1890      H1895   1.109       .  S
C1890      H1896   1.111       .  S
C1897      C1898   1.401       .  A
C1897      C1902   1.398       .  A
C1897      H1904   1.079       .  S
C1898      C1899   1.406       .  A
C1899      C1906   1.505       .  S
C1899      C1900   1.402       .  A
C1900      C1901   1.410       .  A
C1900      H1905   1.083       .  S
C1901      C1902   1.415       .  A
C1902      C1903   1.510       .  S
C1903      H1907   1.111       .  S
C1903      H1908   1.110       .  S
C1903      H1909   1.109       .  S
C1906      H1910   1.106       .  S
C1906      H1912   1.111       .  S
C1913      C1914   1.387       .  A
C1913      C1918   1.379       .  A
C1913      H1920   1.085       .  S
C1914      C1915   1.418       .  A
C1915      C1916   1.377       .  A
C1916      C1917   1.393       .  A
C1917      C1918   1.412       .  A
C1918      C1919   1.497       .  S
C1919      H1923   1.111       .  S
C1919      H1925   1.101       .  S
C1922      H1926   1.102   1_554  S
C1922      H1928   1.111       .  S
C1929      C1930   1.399       .  A
C1929      C1934   1.398       .  A
C1929      H1936   1.078       .  S
C1930      C2595   1.416       .  A
C1931      C1938   1.502       .  S
C1931      C2594   1.416       .  A
C1931      C1932   1.413       .  A
C1932      C2597   1.404       .  A
C1932      H1937   1.084       .  S
C1933      C2596   1.404       .  A
C1933      C1934   1.413       .  A
C1934      C1935   1.505       .  S
C1935      H1939   1.108       .  S
C1935      H1940   1.110       .  S
C1935      H1941   1.106       .  S
C1938      H1942   1.105       .  S
C1938      H1943   1.107       .  S
C1938      H1944   1.108       .  S
C1945      C1946   1.402       .  A
C1945      C1950   1.391       .  A
C1945      H1952   1.085       .  S
C1946      C1947   1.423       .  A
C1947      C2618   1.512       .  S
C1947      C1948   1.397       .  A
C1948      C1949   1.397       .  A
C1948      H1953   1.085       .  S
C1949      C1950   1.409       .  A
C1950      C1951   1.507       .  S
C1951      H1955   1.101       .  S
C1951      H1956   1.107   1_545  S
C1951      H1957   1.106       .  S
C1954      C2611   1.512       .  S
C1954      H1958   1.109       .  S
C1954      H2623   1.107       .  S
C1954      H1960   1.111       .  S
H1959      C2618   1.107       .  S
C1961      C1962   1.398       .  A
C1961      C1966   1.397       .  A
C1962      C1963   1.406       .  A
C1963      C1970   1.508       .  S
C1963      C1964   1.392       .  A
C1964      C1965   1.406       .  A
C1964      H1969   1.084       .  S
C1965      C1966   1.417       .  A
C1967      H1971   1.107       .  S
C1967      H1972   1.110       .  S
C1967      H1973   1.109       .  S
C1970      H1974   1.109       .  S
C1970      H1975   1.110       .  S
C1970      H1976   1.111       .  S
C1977      C1978   1.409       .  A
C1977      C1982   1.375       .  A
C1977      H1984   1.083       .  S
C1979      C1986   1.509       .  S
C1979      C1980   1.404       .  A
C1980      H1985   1.084       .  S
C1981      C1982   1.403       .  A
C1982      C1983   1.509       .  S
C1983      H1987   1.111       .  S
C1983      H1988   1.108       .  S
C1983      H1989   1.106       .  S
C1986      H1990   1.109   1_455  S
C1986      H1991   1.094       .  S
C1986      H1992   1.111       .  S
C1993      C1994   1.538       .  S
C1993      C1999   1.546       .  S
C1993      C1997   1.514       .  S
C1993      C2112   1.545       .  S
C1994      H2001   1.079       .  S
C1994      C1995   1.372       .  D
C1995      C1996   1.596       .  S
C1995      C2054   1.543       .  S
C1996      C2000   1.580       .  S
C1996      C1998   1.605       .  S
C1996      H2002   1.110       .  S
C1997      H2003   1.078       .  S
C1997      C1998   1.362       .  D
C1998      C2028   1.531       .  S
C1999      H2004   1.085       .  S
C1999      C2000   1.374       .  D
C2000      C2086   1.532       .  S
C2005      C2006   1.547       .  S
C2005      C2011   1.534       .  S
C2005      C2009   1.566       .  S
C2005      C2132   1.566       .  S
C2006      H2013   1.086       .  S
C2006      C2007   1.373       .  D
C2007      C2008   1.590       .  S
C2007      C2101   1.541       .  S
C2008      C2012   1.591       .  S
C2008      C2010   1.583       .  S
C2008      H2014   1.110       .  S
C2009      H2015   1.086       .  S
C2009      C2010   1.384       .  D
C2010      C2043   1.559       .  S
C2011      H2016   1.083       .  S
C2011      C2012   1.367       .  D
C2012      C2074   1.536       .  S
O2017      C2025   1.276       .  A
O2018      C2026   1.250       .  A
O2019      C2359   1.267       .  A
O2020      C2028   1.336       .  A
O2020     Co2372   2.227   1_565  S
O2021      C2027   1.232       .  A
O2021     Co2038   1.872       .  S
O2022      C2028   1.283       .  A
O2023      C2026   1.254       .  A
O2023     Co2040   1.987   1_565  S
O2024      C2025   1.279       .  A
C2025      C2262   1.484       .  S
C2026      C2294   1.442       .  S
C2027      O2351   1.267       .  A
C2027      C2246   1.431       .  S
O2029      C2042   1.274       .  A
O2029     Co2037   2.063       .  S
O2030      C2043   1.300       .  A
O2031      C2044   1.266       .  A
O2031     Co2039   1.922       .  S
O2032     Co2040   1.956       .  S
O2034     Co2037   2.011   1_455  S
O2035      C2042   1.245       .  A
O2036      C2043   1.272       .  A
O2036     Co2371   2.001   1_554  S
Co2039     O2368   2.005       .  S
Co2040     O2352   2.230   1_544  S
Co2040     O2373   2.049       .  S
O2041     Co2372   2.046       .  S
C2042      C2230   1.475       .  S
C2044      C2310   1.471       .  S
C2045      C2278   1.467       .  S
O2046      C2054   1.294       .  A
O2046     Co2066   2.043       .  S
O2047      C2055   1.262       .  A
O2047     Co2067   1.995       .  S
O2048      C2056   1.256       .  A
O2048     Co2400   1.946   1_554  S
O2049      C2057   1.274       .  A
O2049     Co2401   1.876       .  S
O2050      C2056   1.271       .  A
O2050     Co2067   1.999       .  S
O2051      C2057   1.304       .  A
O2051     Co2066   2.097       .  S
O2052      C2055   1.258       .  A
O2052     Co2069   1.951   1_554  S
O2053      C2054   1.277       .  A
O2053     Co2068   2.042       .  S
C2055      C2214   1.472       .  S
C2056      C2166   1.463       .  S
C2057      C2233   1.489       .  S
O2058      C2071   1.309       .  A
O2058     Co2066   2.122       .  S
O2059      C2072   1.272       .  A
O2059     Co2067   1.961       .  S
O2060      C2073   1.263       .  A
O2060     Co2068   1.990       .  S
O2061      C2074   1.293       .  A
O2061     Co2069   2.089   1_554  S
O2062      C2074   1.266       .  A
O2062     Co2067   2.007       .  S
O2063      C2073   1.278       .  A
O2063     Co2066   1.996       .  S
O2064      C2071   1.257       .  A
O2064     Co2401   1.919       .  S
O2065      C2404   1.255       .  A
O2065     Co2068   1.925       .  S
Co2066     O2070   2.033       .  S
Co2067     O2402   2.055   1_554  S
Co2068     O2380   1.944       .  S
Co2068     O2070   2.038       .  S
Co2069     O2381   1.874       .  S
Co2069     O2396   1.923       .  S
Co2069     O2402   1.876       .  S
O2070     Co2399   2.056       .  S
O2070     Co2401   1.873       .  S
C2071      C2182   1.509       .  S
C2072      O2397   1.255       .  A
C2072      C2249   1.436       .  S
C2073      C2198   1.468       .  S
O2075      C2083   1.291       .  A
O2076      C2084   1.268       .  A
O2077      C2085   1.254       .  A
O2077     Co2097   1.934       .  S
O2078      C2086   1.272       .  A
O2078     Co2098   2.019       .  S
O2079      C2085   1.274       .  A
O2079     Co2096   2.023       .  S
O2080      C2086   1.272       .  A
O2080     Co2095   2.043       .  S
O2081      C2084   1.250       .  A
O2081     Co2098   1.918       .  S
O2082      C2083   1.273       .  A
O2082     Co2097   1.902       .  S
C2083      C2201   1.481       .  S
C2084      C2297   1.471       .  S
C2085      C2150   1.462       .  S
O2087      C2100   1.272       .  A
O2087     Co2095   2.006       .  S
O2088      C2101   1.260       .  A
O2088     Co2096   2.005       .  S
O2089      C2102   1.259       .  A
O2089     Co2097   1.971       .  S
O2090      C2103   1.270       .  A
O2090     Co2098   1.954       .  S
O2091      C2103   1.268       .  A
O2092     Co2095   1.946   1_455  S
O2093      C2100   1.257       .  A
O2093     Co2098   1.927       .  S
O2094      C2101   1.281       .  A
O2094     Co2097   2.072       .  S
Co2095     O2099   2.102       .  S
Co2098     O2099   1.978       .  S
C2100      C2134   1.453       .  S
C2102      C2313   1.453       .  S
C2103      C2217   1.453       .  S
O2104      C2112   1.276       .  A
O2105      C2113   1.237       .  A
O2106      C2114   1.247       .  A
O2106     Co2126   1.940       .  S
O2107      C2115   1.290       .  A
O2107     Co2127   2.035       .  S
O2108      C2114   1.280       .  A
O2108     Co2125   2.042   1_565  S
O2109      C2115   1.274       .  A
O2109     Co2124   1.957       .  S
O2110      C2113   1.218       .  A
O2110     Co2127   1.956       .  S
O2111      C2112   1.250       .  A
O2111     Co2126   1.960       .  S
C2113      C2281   1.450       .  S
C2114      C2169   1.463       .  S
C2115      C2137   1.472       .  S
O2116      C2129   1.261       .  A
O2116     Co2124   1.966       .  S
O2117      C2130   1.261       .  A
O2117     Co2125   1.972   1_565  S
O2118      C2131   1.274       .  A
O2118     Co2126   2.045       .  S
O2119      C2132   1.313       .  A
O2119     Co2127   2.065       .  S
O2120      C2132   1.291       .  A
O2121      C2131   1.246       .  A
O2122      C2129   1.257       .  A
O2122     Co2127   1.977       .  S
O2123      C2130   1.265       .  A
O2123     Co2126   1.997       .  S
Co2125     O2128   2.107   1_545  S
Co2126     O2128   2.046       .  S
C2129      C2185   1.462       .  S
C2130      C2153   1.478       .  S
C2131      C2265   1.471       .  S
C2133      C2134   1.398       .  A
C2133      C2138   1.398       .  A
C2133      H2140   1.085       .  S
C2134      C2135   1.409       .  A
C2135      C2142   1.506       .  S
C2135      C2136   1.397       .  A
C2136      C2137   1.401       .  A
C2136      H2141   1.081       .  S
C2137      C2138   1.406       .  A
C2138      C2139   1.491       .  S
C2139      H2143   1.108       .  S
C2139      H2144   1.108       .  S
C2139      H2145   1.109       .  S
C2142      H2146   1.103       .  S
C2142      H2147   1.109       .  S
C2142      H2148   1.110       .  S
C2149      C2150   1.390       .  A
C2149      C2154   1.397       .  A
C2149      H2156   1.085       .  S
C2150      C2151   1.416       .  A
C2151      C2158   1.507       .  S
C2151      C2152   1.402       .  A
C2152      C2153   1.400       .  A
C2152      H2157   1.085       .  S
C2153      C2154   1.425       .  A
C2154      C2155   1.504       .  S
C2155      H2159   1.109       .  S
C2155      H2160   1.107       .  S
C2155      H2161   1.102       .  S
C2158      H2162   1.107       .  S
C2158      H2163   1.110       .  S
C2158      H2164   1.110       .  S
C2165      C2166   1.410       .  A
C2165      C2170   1.408       .  A
C2165      H2172   1.084       .  S
C2166      C2167   1.404       .  A
C2167      C2174   1.502       .  S
C2167      C2168   1.390       .  A
C2168      C2169   1.403       .  A
C2168      H2173   1.085       .  S
C2169      C2170   1.405       .  A
C2170      C2171   1.505       .  S
C2171      H2175   1.111       .  S
C2171      H2176   1.108       .  S
C2171      H2177   1.108       .  S
C2174      H2178   1.109       .  S
C2174      H2179   1.110       .  S
C2174      H2180   1.110       .  S
C2181      C2182   1.414       .  A
C2181      C2186   1.397       .  A
C2181      H2188   1.084       .  S
C2182      C2183   1.414       .  A
C2183      C2190   1.482       .  S
C2183      C2184   1.409       .  A
C2184      C2185   1.399       .  A
C2184      H2189   1.084       .  S
C2185      C2186   1.404       .  A
C2186      C2187   1.501       .  S
C2187      H2191   1.103       .  S
C2187      H2192   1.111       .  S
C2187      H2193   1.111       .  S
C2190      H2194   1.095       .  S
C2190      H2195   1.100       .  S
C2190      H2196   1.111       .  S
C2197      C2198   1.399       .  A
C2197      C2202   1.401       .  A
C2197      H2204   1.085       .  S
C2198      C2199   1.410       .  A
C2199      C2206   1.506       .  S
C2199      C2200   1.401       .  A
C2200      C2201   1.408       .  A
C2200      H2205   1.085       .  S
C2201      C2202   1.423       .  A
C2202      C2203   1.508       .  S
C2203      H2207   1.109       .  S
C2203      H2208   1.101       .  S
C2203      H2209   1.109       .  S
C2206      H2210   1.106       .  S
C2206      H2211   1.097       .  S
C2206      H2212   1.111       .  S
C2213      C2214   1.406       .  A
C2213      C2218   1.392       .  A
C2213      H2220   1.084       .  S
C2214      C2215   1.420       .  A
C2215      C2222   1.508       .  S
C2215      C2216   1.393       .  A
C2216      C2217   1.397       .  A
C2216      H2221   1.085       .  S
C2217      C2218   1.407       .  A
C2218      C2219   1.508       .  S
C2219      H2223   1.111       .  S
C2219      H2224   1.111       .  S
C2219      H2225   1.110       .  S
C2222      H2226   1.104       .  S
C2222      H2227   1.109       .  S
C2222      H2228   1.111       .  S
C2229      C2230   1.405       .  A
C2229      C2234   1.400       .  A
C2229      H2236   1.074       .  S
C2230      C2231   1.411       .  A
C2231      C2238   1.506       .  S
C2231      C2232   1.407       .  A
C2232      C2233   1.409       .  A
C2232      H2237   1.083       .  S
C2233      C2234   1.415       .  A
C2234      C2235   1.510       .  S
C2235      H2239   1.111       .  S
C2235      H2240   1.111       .  S
C2235      H2241   1.109       .  S
C2238      H2242   1.106       .  S
C2238      H2575   1.109       .  S
C2238      H2244   1.111       .  S
H2243      C2570   1.109       .  S
C2245      C2246   1.387       .  A
C2245      C2250   1.379       .  A
C2245      H2252   1.085       .  S
C2246      C2247   1.424       .  A
C2247      C2586   1.517       .  S
C2247      C2248   1.376       .  A
C2248      C2249   1.391       .  A
C2248      H2585   1.085       .  S
C2249      C2250   1.414       .  A
C2250      C2251   1.499       .  S
C2251      H2255   1.110       .  S
C2251      H2588   1.107       .  S
C2251      H2257   1.100       .  S
H2253      C2580   1.085       .  S
C2254      C2579   1.517       .  S
C2254      H2258   1.103       .  S
C2254      H2591   1.109       .  S
C2254      H2260   1.111       .  S
H2256      C2583   1.107       .  S
H2259      C2586   1.109       .  S
C2261      C2262   1.398       .  A
C2261      C2266   1.397       .  A
C2261      H2268   1.077       .  S
C2263      C2270   1.505       .  S
C2263      C2264   1.404       .  A
C2264      H2269   1.084       .  S
C2265      C2266   1.413       .  A
C2266      C2267   1.505       .  S
C2267      H2271   1.108       .  S
C2267      H2272   1.111       .  S
C2267      H2273   1.105       .  S
C2270      H2274   1.107       .  S
C2270      H2275   1.107       .  S
C2270      H2276   1.107       .  S
C2277      C2278   1.402       .  A
C2277      C2282   1.390       .  A
C2277      H2284   1.085       .  S
C2278      C2279   1.423       .  A
C2279      C2280   1.397       .  A
C2280      C2281   1.397       .  A
C2280      H2285   1.085       .  S
C2281      C2282   1.409       .  A
C2282      C2283   1.507       .  S
C2283      H2287   1.101       .  S
C2283      H2288   1.107       .  S
C2283      H2289   1.106       .  S
C2286      H2290   1.110       .  S
C2286      H2292   1.111       .  S
C2293      C2294   1.397       .  A
C2293      C2298   1.397       .  A
C2294      C2295   1.404       .  A
C2295      C2302   1.509       .  S
C2295      C2296   1.392       .  A
C2296      C2297   1.407       .  A
C2296      H2301   1.084       .  S
C2297      C2298   1.417       .  A
C2299      H2303   1.107       .  S
C2299      H2304   1.110       .  S
C2299      H2305   1.110       .  S
C2302      H2306   1.110       .  S
C2302      H2307   1.111   1_554  S
C2302      H2308   1.111       .  S
C2309      C2310   1.403       .  A
C2309      C2314   1.377       .  A
C2309      H2316   1.083       .  S
C2311      C2318   1.505       .  S
C2311      C2312   1.403       .  A
C2312      H2317   1.084       .  S
C2313      C2314   1.407       .  A
C2314      C2315   1.507       .  S
C2315      H2319   1.111       .  S
C2315      H2320   1.108       .  S
C2315      H2321   1.106       .  S
C2318      H2322   1.109   1_455  S
C2318      H2323   1.109       .  S
C2318      H2324   1.111       .  S
C2325      C2326   1.538       .  S
C2325      C2331   1.547       .  S
C2325      C2329   1.514       .  S
C2325      C2444   1.547       .  S
C2326      H2333   1.079       .  S
C2326      C2327   1.371       .  D
C2327      C2328   1.597       .  S
C2327      C2386   1.544       .  S
C2328      C2332   1.580       .  S
C2328      C2330   1.607       .  S
C2328      H2334   1.110       .  S
C2329      H2335   1.078       .  S
C2329      C2330   1.362       .  D
C2330      C2360   1.532       .  S
C2331      H2336   1.085       .  S
C2331      C2332   1.375       .  D
C2332      C2418   1.535       .  S
C2337      C2338   1.544       .  S
C2337      C2343   1.532       .  S
C2337      C2341   1.567       .  S
C2337      C2464   1.561       .  S
C2338      H2345   1.086       .  S
C2338      C2339   1.371       .  D
C2339      C2340   1.592       .  S
C2339      C2433   1.540       .  S
C2340      C2344   1.595       .  S
C2340      C2342   1.590       .  S
C2340      H2346   1.110       .  S
C2341      H2347   1.086       .  S
C2341      C2342   1.383       .  D
C2342      C2375   1.566       .  S
C2343      H2348   1.084       .  S
C2343      C2344   1.366       .  D
C2344      C2406   1.539       .  S
O2349      C2357   1.278       .  A
O2350      C2358   1.250       .  A
O2352      C2360   1.336       .  A
O2353      C2359   1.232       .  A
O2353     Co2370   1.870       .  S
O2354      C2360   1.283       .  A
O2355      C2358   1.254       .  A
O2355     Co2372   1.989   1_565  S
O2356      C2357   1.279       .  A
C2357      C2594   1.487       .  S
C2358      C2626   1.443       .  S
C2359      C2578   1.431       .  S
O2361      C2374   1.247       .  A
O2361     Co2369   2.077       .  S
O2362      C2375   1.300       .  A
O2363      C2376   1.268       .  A
O2363     Co2371   1.907       .  S
O2364     Co2372   1.955       .  S
O2366     Co2369   2.021   1_455  S
O2367      C2374   1.222       .  A
O2368      C2375   1.269       .  A
C2374      C2562   1.464       .  S
C2376      C2642   1.476       .  S
C2377      C2610   1.471       .  S
O2378      C2386   1.293       .  A
O2378     Co2398   2.044       .  S
O2379      C2387   1.262       .  A
O2379     Co2399   1.994       .  S
O2380      C2388   1.255       .  A
O2381      C2389   1.275       .  A
O2382      C2388   1.271       .  A
O2382     Co2399   2.002       .  S
O2383      C2389   1.303       .  A
O2383     Co2398   2.090       .  S
O2384      C2387   1.258       .  A
O2384     Co2401   1.949       .  S
O2385      C2386   1.277       .  A
O2385     Co2400   2.043       .  S
C2387      C2546   1.471       .  S
C2388      C2498   1.463       .  S
C2389      C2565   1.483       .  S
O2390      C2403   1.310       .  A
O2390     Co2398   2.123       .  S
O2391      C2404   1.272       .  A
O2391     Co2399   1.961       .  S
O2392      C2405   1.264       .  A
O2392     Co2400   1.993       .  S
O2393      C2406   1.293       .  A
O2393     Co2401   2.088       .  S
O2394      C2406   1.267       .  A
O2394     Co2399   2.012       .  S
O2395      C2405   1.278       .  A
O2395     Co2398   1.995       .  S
O2396      C2403   1.258       .  A
O2397     Co2400   1.924   1_554  S
Co2398     O2402   2.029       .  S
Co2400     O2402   2.039       .  S
C2403      C2514   1.511       .  S
C2404      C2581   1.436       .  S
C2405      C2530   1.469       .  S
O2407      C2415   1.291       .  A
O2408      C2416   1.268       .  A
O2409      C2417   1.254       .  A
O2409     Co2429   1.935       .  S
O2410      C2418   1.271       .  A
O2410     Co2430   2.016       .  S
O2411      C2417   1.275       .  A
O2411     Co2428   2.024       .  S
O2412      C2418   1.274       .  A
O2412     Co2427   2.049       .  S
O2413      C2416   1.249       .  A
O2413     Co2430   1.917       .  S
O2414      C2415   1.274       .  A
O2414     Co2429   1.908       .  S
C2415      C2533   1.482       .  S
C2416      C2629   1.472       .  S
C2417      C2482   1.463       .  S
O2419      C2432   1.271       .  A
O2419     Co2427   2.002       .  S
O2420      C2433   1.258       .  A
O2420     Co2428   2.002       .  S
O2421      C2434   1.258       .  A
O2421     Co2429   1.972       .  S
O2422      C2435   1.271       .  A
O2422     Co2430   1.955       .  S
O2423      C2435   1.269       .  A
O2424     Co2427   1.951   1_455  S
O2425      C2432   1.257       .  A
O2425     Co2430   1.929       .  S
O2426      C2433   1.282       .  A
O2426     Co2429   2.072       .  S
Co2427     O2431   2.102       .  S
Co2430     O2431   1.979       .  S
C2432      C2466   1.452       .  S
C2434      C2645   1.452       .  S
C2435      C2549   1.453       .  S
O2436      C2444   1.276       .  A
O2437      C2445   1.237       .  A
O2438      C2446   1.247       .  A
O2438     Co2458   1.941       .  S
O2439      C2447   1.290       .  A
O2439     Co2459   2.033       .  S
O2440      C2446   1.280       .  A
O2440     Co2457   2.041   1_565  S
O2441      C2447   1.275       .  A
O2441     Co2456   1.959       .  S
O2442      C2445   1.218       .  A
O2442     Co2459   1.961       .  S
O2443      C2444   1.251       .  A
O2443     Co2458   1.961       .  S
C2445      C2613   1.457       .  S
C2446      C2501   1.463       .  S
C2447      C2469   1.471       .  S
O2448      C2461   1.259       .  A
O2448     Co2456   1.961       .  S
O2449      C2462   1.262       .  A
O2449     Co2457   1.973   1_565  S
O2450      C2463   1.275       .  A
O2450     Co2458   2.045       .  S
O2451      C2464   1.313       .  A
O2451     Co2459   2.066       .  S
O2452      C2464   1.289       .  A
O2453      C2463   1.246       .  A
O2454      C2461   1.258       .  A
O2454     Co2459   1.980       .  S
O2455      C2462   1.265       .  A
O2455     Co2458   1.998       .  S
Co2457     O2460   2.106   1_545  S
Co2458     O2460   2.046       .  S
C2461      C2517   1.463       .  S
C2462      C2485   1.478       .  S
C2463      C2597   1.472       .  S
C2465      C2466   1.397       .  A
C2465      C2470   1.398       .  A
C2465      H2472   1.085       .  S
C2466      C2467   1.409       .  A
C2467      C2474   1.503       .  S
C2467      C2468   1.396       .  A
C2468      C2469   1.399       .  A
C2468      H2473   1.080       .  S
C2469      C2470   1.406       .  A
C2470      C2471   1.489       .  S
C2471      H2475   1.109       .  S
C2471      H2476   1.107       .  S
C2471      H2477   1.109       .  S
C2474      H2478   1.103       .  S
C2474      H2479   1.109       .  S
C2474      H2480   1.107       .  S
C2481      C2482   1.390       .  A
C2481      C2486   1.397       .  A
C2481      H2488   1.085       .  S
C2482      C2483   1.416       .  A
C2483      C2490   1.507       .  S
C2483      C2484   1.402       .  A
C2484      C2485   1.400       .  A
C2484      H2489   1.085       .  S
C2485      C2486   1.425       .  A
C2486      C2487   1.504       .  S
C2487      H2491   1.110       .  S
C2487      H2492   1.107       .  S
C2487      H2493   1.103       .  S
C2490      H2494   1.107       .  S
C2490      H2495   1.110       .  S
C2490      H2496   1.110       .  S
C2497      C2498   1.410       .  A
C2497      C2502   1.408       .  A
C2497      H2504   1.084       .  S
C2498      C2499   1.404       .  A
C2499      C2506   1.502       .  S
C2499      C2500   1.390       .  A
C2500      C2501   1.403       .  A
C2500      H2505   1.085       .  S
C2501      C2502   1.405       .  A
C2502      C2503   1.506       .  S
C2503      H2507   1.111       .  S
C2503      H2508   1.108       .  S
C2503      H2509   1.108       .  S
C2506      H2510   1.109       .  S
C2506      H2511   1.110       .  S
C2506      H2512   1.110       .  S
C2513      C2514   1.413       .  A
C2513      C2518   1.398       .  A
C2513      H2520   1.084       .  S
C2514      C2515   1.414       .  A
C2515      C2522   1.478       .  S
C2515      C2516   1.409       .  A
C2516      C2517   1.398       .  A
C2516      H2521   1.084       .  S
C2517      C2518   1.405       .  A
C2518      C2519   1.500       .  S
C2519      H2523   1.101       .  S
C2519      H2524   1.110       .  S
C2519      H2525   1.111       .  S
C2522      H2526   1.094       .  S
C2522      H2527   1.099       .  S
C2522      H2528   1.111       .  S
C2529      C2530   1.398       .  A
C2529      C2534   1.402       .  A
C2529      H2536   1.085       .  S
C2530      C2531   1.410       .  A
C2531      C2538   1.506       .  S
C2531      C2532   1.402       .  A
C2532      C2533   1.408       .  A
C2532      H2537   1.084       .  S
C2533      C2534   1.423       .  A
C2534      C2535   1.508       .  S
C2535      H2539   1.109       .  S
C2535      H2540   1.101       .  S
C2535      H2541   1.109       .  S
C2538      H2542   1.106       .  S
C2538      H2543   1.097       .  S
C2538      H2544   1.111       .  S
C2545      C2546   1.406       .  A
C2545      C2550   1.392       .  A
C2545      H2552   1.084       .  S
C2546      C2547   1.420       .  A
C2547      C2554   1.508       .  S
C2547      C2548   1.394       .  A
C2548      C2549   1.398       .  A
C2548      H2553   1.085       .  S
C2549      C2550   1.407       .  A
C2550      C2551   1.508       .  S
C2551      H2555   1.111       .  S
C2551      H2556   1.110       .  S
C2551      H2557   1.110       .  S
C2554      H2558   1.105       .  S
C2554      H2559   1.109       .  S
C2554      H2560   1.111       .  S
C2561      C2562   1.401       .  A
C2561      C2566   1.398       .  A
C2561      H2568   1.079       .  S
C2562      C2563   1.406       .  A
C2563      C2570   1.505       .  S
C2563      C2564   1.403       .  A
C2564      C2565   1.410       .  A
C2564      H2569   1.083       .  S
C2565      C2566   1.415       .  A
C2566      C2567   1.509       .  S
C2567      H2571   1.111       .  S
C2567      H2572   1.110       .  S
C2567      H2573   1.109       .  S
C2570      H2574   1.106       .  S
C2570      H2576   1.111       .  S
C2577      C2578   1.387       .  A
C2577      C2582   1.380       .  A
C2577      H2584   1.085       .  S
C2578      C2579   1.424       .  A
C2579      C2580   1.375       .  A
C2580      C2581   1.391       .  A
C2581      C2582   1.414       .  A
C2582      C2583   1.499       .  S
C2583      H2587   1.110       .  S
C2583      H2589   1.101       .  S
C2586      H2590   1.103   1_554  S
C2586      H2592   1.111       .  S
C2593      C2594   1.399       .  A
C2593      C2598   1.398       .  A
C2593      H2600   1.078       .  S
C2595      C2602   1.502       .  S
C2595      C2596   1.413       .  A
C2596      H2601   1.084       .  S
C2597      C2598   1.413       .  A
C2598      C2599   1.505       .  S
C2599      H2603   1.108       .  S
C2599      H2604   1.111       .  S
C2599      H2605   1.106       .  S
C2602      H2606   1.105       .  S
C2602      H2607   1.107       .  S
C2602      H2608   1.108       .  S
C2609      C2610   1.403       .  A
C2609      C2614   1.391       .  A
C2609      H2616   1.085       .  S
C2610      C2611   1.422       .  A
C2611      C2612   1.400       .  A
C2612      C2613   1.398       .  A
C2612      H2617   1.085       .  S
C2613      C2614   1.409       .  A
C2614      C2615   1.507       .  S
C2615      H2619   1.102       .  S
C2615      H2620   1.107       .  S
C2615      H2621   1.106       .  S
C2618      H2622   1.110       .  S
C2618      H2624   1.111       .  S
C2625      C2626   1.398       .  A
C2625      C2630   1.397       .  A
C2626      C2627   1.404       .  A
C2627      C2634   1.509       .  S
C2627      C2628   1.392       .  A
C2628      C2629   1.407       .  A
C2628      H2633   1.084       .  S
C2629      C2630   1.417       .  A
C2631      H2635   1.107       .  S
C2631      H2636   1.110       .  S
C2631      H2637   1.109       .  S
C2634      H2638   1.110       .  S
C2634      H2639   1.111       .  S
C2634      H2640   1.111       .  S
C2641      C2642   1.408       .  A
C2641      C2646   1.374       .  A
C2641      H2648   1.083       .  S
C2643      C2650   1.509       .  S
C2643      C2644   1.405       .  A
C2644      H2649   1.084       .  S
C2645      C2646   1.403       .  A
C2646      C2647   1.509       .  S
C2647      H2651   1.111       .  S
C2647      H2652   1.108       .  S
C2647      H2653   1.106       .  S
C2650      H2654   1.109   1_455  S
C2650      H2655   1.094       .  S
C2650      H2656   1.111       .  S
