geometry optimzed in LAMMPS
_audit_creation_date              2020-12-01 
_audit_creation_method            'lammps2cif' 
_symmetry_space_group_name_H-M    'P1' 
_symmetry_Int_Tables_number       1 
_symmetry_cell_setting            triclinic 
loop_ 
_symmetry_equiv_pos_as_xyz 
  x,y,z 
_cell_length_a                    25.92222912 
_cell_length_b                    23.7544692970693 
_cell_length_c                    23.753979311334447 
_cell_angle_alpha                 90.00175613566033 
_cell_angle_beta                  89.99977905624424 
_cell_angle_gamma                 89.9986021736504 
loop_ 
_atom_site_label 
_atom_site_type_symbol 
_atom_site_fract_x 
_atom_site_fract_y 
_atom_site_fract_z 
_atom_site_charge 
N1          N  0.44159136  0.43294041  0.10559819    -0.03900
N2          N  0.40511048  0.42293217  0.14309987    -0.56000
N3          N  0.06019724  0.39373485  0.06640579    -0.03600
N4          N  0.09667557  0.35623089  0.07641658    -0.58700
N5          N  0.06020291  0.43292372  0.10559318    -0.03100
N6          N  0.09668515  0.42290838  0.14309104    -0.56000
N7          N  0.44158683  0.39375281  0.06640947    -0.02800
N8          N  0.40510304  0.35625774  0.07642259    -0.58500
C9          C  0.38251177  0.37539738  0.12396232     0.98300
C10         C  0.11927342  0.37536700  0.12395321     0.98100
N11         N  0.06019691  0.43292173  0.39438632    -0.04100
N12         N  0.09667928  0.42290599  0.35688769    -0.56600
N13         N  0.44158412  0.39375240  0.43357687    -0.02200
N14         N  0.40509910  0.35625756  0.42356590    -0.57800
N15         N  0.44158690  0.43293823  0.39438905    -0.04100
N16         N  0.40510357  0.42292944  0.35688995    -0.56800
N17         N  0.06019339  0.39373473  0.43357335    -0.01800
N18         N  0.09667290  0.35623218  0.42356197    -0.57900
Mn19       Mn  0.00089022  0.39213030  0.49999116     1.18400
C20         C  0.11926922  0.37536716  0.37602523     1.00400
C21         C  0.38250581  0.37539581  0.37602859     1.01100
N22         N  0.06021823  0.06575497  0.10559215    -0.04100
N23         N  0.09670143  0.07576383  0.14309105    -0.60400
N24         N  0.44161163  0.10495863  0.06640772    -0.02900
N25         N  0.40513241  0.14246107  0.07641924    -0.61100
N26         N  0.44160820  0.06577154  0.10559491    -0.03600
N27         N  0.40512590  0.07578723  0.14309344    -0.60700
N28         N  0.06022104  0.10494106  0.06640416    -0.02500
N29         N  0.09670582  0.14243569  0.07641516    -0.61400
Mn30       Mn  0.50090512  0.99934793  0.10720839     1.10700
C31         C  0.11929930  0.12329760  0.12395254     1.01600
C32         C  0.38253597  0.12332631  0.12395609     1.01700
N33         N  0.44160230  0.06576952  0.39438788    -0.03600
N34         N  0.40512000  0.07578511  0.35688989    -0.59000
N35         N  0.06021827  0.10494046  0.43357164    -0.02900
N36         N  0.09670205  0.14243545  0.42355845    -0.55700
N37         N  0.06021356  0.06575285  0.39438297    -0.04200
N38         N  0.09669458  0.07576109  0.35688109    -0.58600
N39         N  0.44160768  0.10495850  0.43357521    -0.03200
N40         N  0.40512966  0.14246262  0.42356438    -0.55700
Mn41       Mn  0.00089992  0.49934539  0.39277271     1.20200
Mn42       Mn  0.50091488  0.10656307  0.99998991     1.10100
Cl43       Cl  0.00090253  0.99934663  0.99999048    -0.83700
C44         C  0.38253179  0.12332624  0.37602764     0.98600
C45         C  0.11929313  0.12329592  0.37601883     0.98400
C46         C  0.22112400  0.21679474  0.28253501    -0.00200
C47         C  0.22111234  0.28188621  0.28253658    -0.00200
C48         C  0.22111452  0.28188676  0.21744390    -0.00200
C49         C  0.22112632  0.21679518  0.21744212    -0.00200
C50         C  0.28069051  0.21680655  0.28253723    -0.00200
C51         C  0.28069270  0.21680709  0.21744452    -0.00200
C52         C  0.28068104  0.28189861  0.21744608    -0.00200
C53         C  0.28067870  0.28189812  0.28253898    -0.00200
C54         C  0.15787826  0.15395646  0.34535478    -0.11000
C55         C  0.18767779  0.18150121  0.31781712    -0.12600
C56         C  0.18766069  0.31716560  0.18215602    -0.11000
C57         C  0.15785825  0.34470286  0.15461404    -0.12600
C58         C  0.31414731  0.18152766  0.18215763    -0.11000
C59         C  0.34395046  0.15398964  0.15461658    -0.12600
C60         C  0.18768367  0.18150266  0.18215511    -0.11000
C61         C  0.15788453  0.15395858  0.15461509    -0.12600
C62         C  0.34392037  0.34473467  0.34536603    -0.11000
C63         C  0.31412143  0.31719056  0.31782599    -0.12600
C64         C  0.31414455  0.18152768  0.31782507    -0.11000
C65         C  0.34394694  0.15399054  0.34536693    -0.12600
C66         C  0.15785488  0.34470360  0.34536473    -0.11000
C67         C  0.18765768  0.31716567  0.31782358    -0.12600
C68         C  0.31412715  0.31719204  0.18216400    -0.11000
C69         C  0.34392688  0.34473686  0.15462619    -0.12600
N70         N  0.44159144  0.43294021  0.60559818    -0.03900
N71         N  0.40511042  0.42293221  0.64309986    -0.56000
N72         N  0.06019731  0.39373492  0.56640575    -0.03600
N73         N  0.09667582  0.35623076  0.57641657    -0.58700
N74         N  0.06020313  0.43292364  0.60559331    -0.03100
N75         N  0.09668522  0.42290845  0.64309096    -0.56000
N76         N  0.44158680  0.39375298  0.56640945    -0.02800
N77         N  0.40510278  0.35625776  0.57642256    -0.58500
C78         C  0.38251183  0.37539738  0.62396230     0.98300
C79         C  0.11927355  0.37536693  0.62395330     0.98100
N80         N  0.06019709  0.43292155  0.89438616    -0.04100
N81         N  0.09667914  0.42290607  0.85688778    -0.56600
N82         N  0.44158417  0.39375225  0.93357713    -0.02200
N83         N  0.40509922  0.35625737  0.92356581    -0.57800
N84         N  0.44158685  0.43293822  0.89438887    -0.04100
N85         N  0.40510376  0.42292923  0.85689008    -0.56800
N86         N  0.06019315  0.39373490  0.93357352    -0.01800
N87         N  0.09667295  0.35623204  0.92356185    -0.57900
Mn88       Mn  0.00089012  0.39213019  0.99999120     1.18400
C89         C  0.11926914  0.37536702  0.87602544     1.00400
C90         C  0.38250585  0.37539574  0.87602879     1.01100
N91         N  0.06021823  0.06575497  0.60559230    -0.04100
N92         N  0.09670138  0.07576397  0.64309103    -0.60400
N93         N  0.44161183  0.10495844  0.56640778    -0.02900
N94         N  0.40513223  0.14246129  0.57641929    -0.61100
N95         N  0.44160810  0.06577174  0.60559485    -0.03600
N96         N  0.40512595  0.07578719  0.64309341    -0.60700
N97         N  0.06022103  0.10494104  0.56640397    -0.02500
N98         N  0.09670575  0.14243580  0.57641527    -0.61400
Mn99       Mn  0.50090531  0.99934797  0.60720845     1.10700
C100        C  0.11929927  0.12329757  0.62395242     1.01600
C101        C  0.38253603  0.12332640  0.62395617     1.01700
N102        N  0.44160208  0.06576959  0.89438783    -0.03600
N103        N  0.40512007  0.07578497  0.85688987    -0.59000
N104        N  0.06021820  0.10494037  0.93357168    -0.02900
N105        N  0.09670225  0.14243545  0.92355843    -0.55700
N106        N  0.06021359  0.06575302  0.89438286    -0.04200
N107        N  0.09669459  0.07576096  0.85688118    -0.58600
N108        N  0.44160773  0.10495855  0.93357527    -0.03200
N109        N  0.40512953  0.14246247  0.92356435    -0.55700
Mn110      Mn  0.00089976  0.49934531  0.89277269     1.20200
Mn111      Mn  0.50091486  0.10656303  0.49998991     1.10100
Cl112      Cl  0.00090253  0.99934661  0.49999051    -0.83700
C113        C  0.38253170  0.12332653  0.87602768     0.98600
C114        C  0.11929311  0.12329598  0.87601881     0.98400
C115        C  0.22112397  0.21679474  0.78253497    -0.00200
C116        C  0.22111241  0.28188621  0.78253659    -0.00200
C117        C  0.22111445  0.28188684  0.71744389    -0.00200
C118        C  0.22112643  0.21679531  0.71744224    -0.00200
C119        C  0.28069054  0.21680659  0.78253725    -0.00200
C120        C  0.28069273  0.21680707  0.71744445    -0.00200
C121        C  0.28068105  0.28189857  0.71744616    -0.00200
C122        C  0.28067860  0.28189799  0.78253892    -0.00200
C123        C  0.15787823  0.15395661  0.84535481    -0.11000
C124        C  0.18767791  0.18150124  0.81781710    -0.12600
C125        C  0.18766070  0.31716559  0.68215603    -0.11000
C126        C  0.15785830  0.34470298  0.65461396    -0.12600
C127        C  0.31414731  0.18152770  0.68215777    -0.11000
C128        C  0.34395047  0.15398967  0.65461638    -0.12600
C129        C  0.18768352  0.18150272  0.68215501    -0.11000
C130        C  0.15788470  0.15395871  0.65461529    -0.12600
C131        C  0.34392026  0.34473454  0.84536586    -0.11000
C132        C  0.31412153  0.31719060  0.81782617    -0.12600
C133        C  0.31414437  0.18152780  0.81782501    -0.11000
C134        C  0.34394692  0.15399055  0.84536703    -0.12600
C135        C  0.15785488  0.34470358  0.84536470    -0.11000
C136        C  0.18765765  0.31716583  0.81782363    -0.12600
C137        C  0.31412705  0.31719200  0.68216403    -0.11000
C138        C  0.34392679  0.34473671  0.65462626    -0.12600
N139        N  0.44159147  0.93294028  0.10559811    -0.03900
N140        N  0.40511056  0.92293209  0.14309992    -0.56000
N141        N  0.06019722  0.89373480  0.06640573    -0.03600
N142        N  0.09667556  0.85623081  0.07641655    -0.58700
N143        N  0.06020305  0.93292370  0.10559325    -0.03100
N144        N  0.09668507  0.92290829  0.14309097    -0.56000
N145        N  0.44158688  0.89375286  0.06640944    -0.02800
N146        N  0.40510303  0.85625776  0.07642255    -0.58500
C147        C  0.38251180  0.87539735  0.12396216     0.98300
C148        C  0.11927344  0.87536687  0.12395320     0.98100
N149        N  0.06019697  0.93292154  0.39438635    -0.04100
N150        N  0.09667925  0.92290605  0.35688768    -0.56600
N151        N  0.44158408  0.89375239  0.43357692    -0.02200
N152        N  0.40509917  0.85625747  0.42356591    -0.57800
N153        N  0.44158689  0.93293824  0.39438909    -0.04100
N154        N  0.40510355  0.92292931  0.35688996    -0.56800
N155        N  0.06019329  0.89373478  0.43357327    -0.01800
N156        N  0.09667297  0.85623214  0.42356196    -0.57900
Mn157      Mn  0.00089024  0.89213026  0.49999117     1.18400
C158        C  0.11926917  0.87536705  0.37602522     1.00400
C159        C  0.38250586  0.87539576  0.37602865     1.01100
N160        N  0.06021810  0.56575503  0.10559215    -0.04100
N161        N  0.09670147  0.57576405  0.14309111    -0.60400
N162        N  0.44161171  0.60495864  0.06640772    -0.02900
N163        N  0.40513235  0.64246117  0.07641921    -0.61100
N164        N  0.44160803  0.56577163  0.10559496    -0.03600
N165        N  0.40512599  0.57578725  0.14309336    -0.60700
N166        N  0.06022109  0.60494112  0.06640414    -0.02500
N167        N  0.09670577  0.64243576  0.07641512    -0.61400
Mn168      Mn  0.50090515  0.49934798  0.10720840     1.10700
C169        C  0.11929919  0.62329759  0.12395248     1.01600
C170        C  0.38253587  0.62332649  0.12395617     1.01700
N171        N  0.44160216  0.56576963  0.39438782    -0.03600
N172        N  0.40512021  0.57578508  0.35688991    -0.59000
N173        N  0.06021827  0.60494051  0.43357169    -0.02900
N174        N  0.09670208  0.64243538  0.42355847    -0.55700
N175        N  0.06021359  0.56575287  0.39438285    -0.04200
N176        N  0.09669457  0.57576106  0.35688117    -0.58600
N177        N  0.44160780  0.60495847  0.43357526    -0.03200
N178        N  0.40512959  0.64246259  0.42356437    -0.55700
Mn179      Mn  0.00089994  0.99934534  0.39277268     1.20200
Mn180      Mn  0.50091484  0.60656298  0.99998989     1.10100
Cl181      Cl  0.00090251  0.49934668  0.99999051    -0.83700
C182        C  0.38253167  0.62332640  0.37602768     0.98600
C183        C  0.11929314  0.62329589  0.37601881     0.98400
C184        C  0.22112405  0.71679476  0.28253492    -0.00200
C185        C  0.22111232  0.78188623  0.28253664    -0.00200
C186        C  0.22111455  0.78188669  0.21744389    -0.00200
C187        C  0.22112641  0.71679528  0.21744216    -0.00200
C188        C  0.28069054  0.71680659  0.28253724    -0.00200
C189        C  0.28069279  0.71680708  0.21744442    -0.00200
C190        C  0.28068104  0.78189862  0.21744614    -0.00200
C191        C  0.28067867  0.78189804  0.28253893    -0.00200
C192        C  0.15787833  0.65395646  0.34535480    -0.11000
C193        C  0.18767781  0.68150131  0.31781717    -0.12600
C194        C  0.18766068  0.81716548  0.18215599    -0.11000
C195        C  0.15785831  0.84470290  0.15461404    -0.12600
C196        C  0.31414718  0.68152772  0.18215778    -0.11000
C197        C  0.34395058  0.65398965  0.15461648    -0.12600
C198        C  0.18768353  0.68150272  0.18215502    -0.11000
C199        C  0.15788463  0.65395860  0.15461522    -0.12600
C200        C  0.34392028  0.84473472  0.34536595    -0.11000
C201        C  0.31412154  0.81719054  0.31782601    -0.12600
C202        C  0.31414443  0.68152787  0.31782502    -0.11000
C203        C  0.34394700  0.65399057  0.34536705    -0.12600
C204        C  0.15785482  0.84470376  0.34536483    -0.11000
C205        C  0.18765778  0.81716565  0.31782350    -0.12600
C206        C  0.31412713  0.81719195  0.18216400    -0.11000
C207        C  0.34392687  0.84473679  0.15462617    -0.12600
N208        N  0.44159132  0.93294026  0.60559825    -0.03900
N209        N  0.40511047  0.92293225  0.64309985    -0.56000
N210        N  0.06019737  0.89373490  0.56640575    -0.03600
N211        N  0.09667571  0.85623081  0.57641662    -0.58700
N212        N  0.06020298  0.93292368  0.60559317    -0.03100
N213        N  0.09668514  0.92290838  0.64309106    -0.56000
N214        N  0.44158685  0.89375296  0.56640947    -0.02800
N215        N  0.40510281  0.85625770  0.57642261    -0.58500
C216        C  0.38251181  0.87539734  0.62396234     0.98300
C217        C  0.11927352  0.87536698  0.62395324     0.98100
N218        N  0.06019703  0.93292161  0.89438614    -0.04100
N219        N  0.09667921  0.92290611  0.85688777    -0.56600
N220        N  0.44158421  0.89375231  0.93357709    -0.02200
N221        N  0.40509917  0.85625749  0.92356578    -0.57800
N222        N  0.44158685  0.93293826  0.89438882    -0.04100
N223        N  0.40510375  0.92292941  0.85689008    -0.56800
N224        N  0.06019318  0.89373493  0.93357345    -0.01800
N225        N  0.09667291  0.85623208  0.92356186    -0.57900
Mn226      Mn  0.00089010  0.89213027  0.99999117     1.18400
C227        C  0.11926911  0.87536706  0.87602530     1.00400
C228        C  0.38250581  0.87539582  0.87602872     1.01100
N229        N  0.06021824  0.56575498  0.60559228    -0.04100
N230        N  0.09670138  0.57576384  0.64309100    -0.60400
N231        N  0.44161177  0.60495842  0.56640777    -0.02900
N232        N  0.40513225  0.64246121  0.57641934    -0.61100
N233        N  0.44160815  0.56577163  0.60559483    -0.03600
N234        N  0.40512594  0.57578715  0.64309345    -0.60700
N235        N  0.06022102  0.60494099  0.56640400    -0.02500
N236        N  0.09670580  0.64243573  0.57641528    -0.61400
Mn237      Mn  0.50090529  0.49934789  0.60720844     1.10700
C238        C  0.11929932  0.62329754  0.62395248     1.01600
C239        C  0.38253604  0.62332630  0.62395610     1.01700
N240        N  0.44160225  0.56576947  0.89438788    -0.03600
N241        N  0.40511990  0.57578499  0.85688984    -0.59000
N242        N  0.06021823  0.60494030  0.93357166    -0.02900
N243        N  0.09670222  0.64243547  0.92355841    -0.55700
N244        N  0.06021361  0.56575294  0.89438289    -0.04200
N245        N  0.09669460  0.57576099  0.85688113    -0.58600
N246        N  0.44160762  0.60495854  0.93357523    -0.03200
N247        N  0.40512960  0.64246248  0.92356436    -0.55700
Mn248      Mn  0.00089976  0.99934538  0.89277271     1.20200
Mn249      Mn  0.50091490  0.60656295  0.49998991     1.10100
Cl250      Cl  0.00090255  0.49934662  0.49999049    -0.83700
C251        C  0.38253185  0.62332635  0.87602762     0.98600
C252        C  0.11929307  0.62329595  0.87601882     0.98400
C253        C  0.22112401  0.71679474  0.78253500    -0.00200
C254        C  0.22111236  0.78188616  0.78253666    -0.00200
C255        C  0.22111447  0.78188678  0.71744392    -0.00200
C256        C  0.22112634  0.71679523  0.71744216    -0.00200
C257        C  0.28069052  0.71680652  0.78253721    -0.00200
C258        C  0.28069271  0.71680710  0.71744451    -0.00200
C259        C  0.28068105  0.78189856  0.71744613    -0.00200
C260        C  0.28067863  0.78189807  0.78253893    -0.00200
C261        C  0.15787824  0.65395651  0.84535473    -0.11000
C262        C  0.18767782  0.68150114  0.81781715    -0.12600
C263        C  0.18766070  0.81716551  0.68215607    -0.11000
C264        C  0.15785828  0.84470288  0.65461400    -0.12600
C265        C  0.31414743  0.68152769  0.68215768    -0.11000
C266        C  0.34395039  0.65398966  0.65461649    -0.12600
C267        C  0.18768367  0.68150271  0.68215506    -0.11000
C268        C  0.15788459  0.65395867  0.65461516    -0.12600
C269        C  0.34392035  0.84473451  0.84536593    -0.11000
C270        C  0.31412143  0.81719064  0.81782612    -0.12600
C271        C  0.31414453  0.68152768  0.81782509    -0.11000
C272        C  0.34394691  0.65399051  0.84536691    -0.12600
C273        C  0.15785476  0.84470351  0.84536473    -0.11000
C274        C  0.18765769  0.81716583  0.81782362    -0.12600
C275        C  0.31412710  0.81719205  0.68216398    -0.11000
C276        C  0.34392685  0.84473684  0.65462626    -0.12600
N277        N  0.94159129  0.43294031  0.10559825    -0.03900
N278        N  0.90511045  0.42293229  0.14309987    -0.56000
N279        N  0.56019735  0.39373486  0.06640574    -0.03600
N280        N  0.59667566  0.35623092  0.07641666    -0.58700
N281        N  0.56020294  0.43292379  0.10559331    -0.03100
N282        N  0.59668510  0.42290841  0.14309109    -0.56000
N283        N  0.94158684  0.39375299  0.06640947    -0.02800
N284        N  0.90510284  0.35625772  0.07642263    -0.58500
C285        C  0.88251184  0.37539736  0.12396235     0.98300
C286        C  0.61927347  0.37536708  0.12395324     0.98100
N287        N  0.56019703  0.43292162  0.39438613    -0.04100
N288        N  0.59667920  0.42290611  0.35688781    -0.56600
N289        N  0.94158411  0.39375226  0.43357699    -0.02200
N290        N  0.90509909  0.35625751  0.42356585    -0.57800
N291        N  0.94158692  0.43293824  0.39438892    -0.04100
N292        N  0.90510368  0.42292940  0.35689002    -0.56800
N293        N  0.56019319  0.39373489  0.43357349    -0.01800
N294        N  0.59667293  0.35623210  0.42356187    -0.57900
Mn295      Mn  0.50089011  0.39213027  0.49999117     1.18400
C296        C  0.61926911  0.37536709  0.37602532     1.00400
C297        C  0.88250583  0.37539586  0.37602867     1.01100
N298        N  0.56021827  0.06575494  0.10559232    -0.04100
N299        N  0.59670128  0.07576380  0.14309094    -0.60400
N300        N  0.94161167  0.10495859  0.06640775    -0.02900
N301        N  0.90513238  0.14246113  0.07641928    -0.61100
N302        N  0.94160826  0.06577160  0.10559492    -0.03600
N303        N  0.90512594  0.07578718  0.14309342    -0.60700
N304        N  0.56022094  0.10494104  0.06640400    -0.02500
N305        N  0.59670577  0.14243573  0.07641527    -0.61400
Mn306      Mn  0.00090529  0.99934792  0.10720846     1.10700
C307        C  0.61929937  0.12329758  0.12395244     1.01600
C308        C  0.88253602  0.12332634  0.12395614     1.01700
N309        N  0.94160218  0.06576955  0.39438783    -0.03600
N310        N  0.90511995  0.07578504  0.35688992    -0.59000
N311        N  0.56021826  0.10494032  0.43357167    -0.02900
N312        N  0.59670228  0.14243548  0.42355843    -0.55700
N313        N  0.56021363  0.06575296  0.39438288    -0.04200
N314        N  0.59669463  0.07576100  0.35688112    -0.58600
N315        N  0.94160767  0.10495837  0.43357524    -0.03200
N316        N  0.90512961  0.14246262  0.42356435    -0.55700
Mn317      Mn  0.50089978  0.49934535  0.39277269     1.20200
Mn318      Mn  0.00091490  0.10656310  0.99998991     1.10100
Cl319      Cl  0.50090252  0.99934663  0.99999048    -0.83700
C320        C  0.88253176  0.12332630  0.37602763     0.98600
C321        C  0.61929309  0.12329595  0.37601884     0.98400
C322        C  0.72112395  0.21679478  0.28253495    -0.00200
C323        C  0.72111236  0.28188616  0.28253655    -0.00200
C324        C  0.72111446  0.28188677  0.21744387    -0.00200
C325        C  0.72112633  0.21679519  0.21744214    -0.00200
C326        C  0.78069049  0.21680649  0.28253729    -0.00200
C327        C  0.78069265  0.21680712  0.21744456    -0.00200
C328        C  0.78068102  0.28189859  0.21744608    -0.00200
C329        C  0.78067859  0.28189805  0.28253890    -0.00200
C330        C  0.65787825  0.15395652  0.34535471    -0.11000
C331        C  0.68767781  0.18150109  0.31781719    -0.12600
C332        C  0.68766063  0.31716565  0.18215599    -0.11000
C333        C  0.65785822  0.34470285  0.15461408    -0.12600
C334        C  0.81414732  0.18152765  0.18215763    -0.11000
C335        C  0.84395040  0.15398967  0.15461655    -0.12600
C336        C  0.68768367  0.18150264  0.18215508    -0.11000
C337        C  0.65788458  0.15395864  0.15461511    -0.12600
C338        C  0.84392033  0.34473454  0.34536594    -0.11000
C339        C  0.81412147  0.31719069  0.31782612    -0.12600
C340        C  0.81414447  0.18152774  0.31782498    -0.11000
C341        C  0.84394696  0.15399047  0.34536697    -0.12600
C342        C  0.65785485  0.34470349  0.34536466    -0.11000
C343        C  0.68765766  0.31716574  0.31782367    -0.12600
C344        C  0.81412709  0.31719210  0.18216396    -0.11000
C345        C  0.84392691  0.34473684  0.15462625    -0.12600
N346        N  0.94159158  0.43294034  0.60559822    -0.03900
N347        N  0.90511051  0.42293208  0.64309992    -0.56000
N348        N  0.56019725  0.39373475  0.56640581    -0.03600
N349        N  0.59667558  0.35623085  0.57641653    -0.58700
N350        N  0.56020293  0.43292371  0.60559328    -0.03100
N351        N  0.59668511  0.42290834  0.64309101    -0.56000
N352        N  0.94158682  0.39375279  0.56640948    -0.02800
N353        N  0.90510301  0.35625783  0.57642252    -0.58500
C354        C  0.88251185  0.37539750  0.62396228     0.98300
C355        C  0.61927343  0.37536697  0.62395332     0.98100
N356        N  0.56019710  0.43292164  0.89438625    -0.04100
N357        N  0.59667916  0.42290605  0.85688775    -0.56600
N358        N  0.94158409  0.39375236  0.93357694    -0.02200
N359        N  0.90509917  0.35625744  0.92356596    -0.57800
N360        N  0.94158690  0.43293820  0.89438913    -0.04100
N361        N  0.90510355  0.42292927  0.85688999    -0.56800
N362        N  0.56019333  0.39373484  0.93357349    -0.01800
N363        N  0.59667299  0.35623210  0.92356189    -0.57900
Mn364      Mn  0.50089024  0.39213023  0.99999118     1.18400
C365        C  0.61926930  0.37536710  0.87602540     1.00400
C366        C  0.88250586  0.37539572  0.87602869     1.01100
N367        N  0.56021809  0.06575500  0.60559207    -0.04100
N368        N  0.59670151  0.07576397  0.64309115    -0.60400
N369        N  0.94161183  0.10495854  0.56640776    -0.02900
N370        N  0.90513230  0.14246116  0.57641928    -0.61100
N371        N  0.94160814  0.06577164  0.60559493    -0.03600
N372        N  0.90512598  0.07578724  0.64309344    -0.60700
N373        N  0.56022108  0.10494095  0.56640418    -0.02500
N374        N  0.59670579  0.14243570  0.57641510    -0.61400
Mn375      Mn  0.00090528  0.99934798  0.60720841     1.10700
C376        C  0.61929923  0.12329757  0.62395252     1.01600
C377        C  0.88253603  0.12332630  0.62395611     1.01700
N378        N  0.94160211  0.06576962  0.89438780    -0.03600
N379        N  0.90512019  0.07578498  0.85688992    -0.59000
N380        N  0.56021823  0.10494053  0.93357168    -0.02900
N381        N  0.59670204  0.14243543  0.92355845    -0.55700
N382        N  0.56021354  0.06575291  0.89438293    -0.04200
N383        N  0.59669458  0.07576104  0.85688118    -0.58600
N384        N  0.94160779  0.10495857  0.93357533    -0.03200
N385        N  0.90512953  0.14246253  0.92356430    -0.55700
Mn386      Mn  0.50089987  0.49934532  0.89277272     1.20200
Mn387      Mn  0.00091483  0.10656299  0.49998990     1.10100
Cl388      Cl  0.50090250  0.99934662  0.49999051    -0.83700
C389        C  0.88253170  0.12332650  0.87602772     0.98600
C390        C  0.61929317  0.12329596  0.87601883     0.98400
C391        C  0.72112401  0.21679474  0.78253493    -0.00200
C392        C  0.72111233  0.28188625  0.78253657    -0.00200
C393        C  0.72111454  0.28188683  0.71744388    -0.00200
C394        C  0.72112637  0.21679527  0.71744212    -0.00200
C395        C  0.78069052  0.21680657  0.78253721    -0.00200
C396        C  0.78069275  0.21680713  0.71744444    -0.00200
C397        C  0.78068104  0.28189856  0.71744612    -0.00200
C398        C  0.78067867  0.28189804  0.78253896    -0.00200
C399        C  0.65787824  0.15395660  0.84535487    -0.11000
C400        C  0.68767787  0.18150129  0.81781706    -0.12600
C401        C  0.68766067  0.31716563  0.68215599    -0.11000
C402        C  0.65785825  0.34470294  0.65461402    -0.12600
C403        C  0.81414729  0.18152763  0.68215766    -0.11000
C404        C  0.84395049  0.15398969  0.65461651    -0.12600
C405        C  0.68768357  0.18150278  0.68215511    -0.11000
C406        C  0.65788468  0.15395853  0.65461516    -0.12600
C407        C  0.84392028  0.34473466  0.84536598    -0.11000
C408        C  0.81412151  0.31719049  0.81782603    -0.12600
C409        C  0.81414446  0.18152780  0.81782503    -0.11000
C410        C  0.84394694  0.15399058  0.84536705    -0.12600
C411        C  0.65785491  0.34470373  0.84536481    -0.11000
C412        C  0.68765769  0.31716574  0.81782355    -0.12600
C413        C  0.81412720  0.31719204  0.68216398    -0.11000
C414        C  0.84392676  0.34473689  0.65462628    -0.12600
N415        N  0.94159138  0.93294019  0.10559818    -0.03900
N416        N  0.90511052  0.92293221  0.14309992    -0.56000
N417        N  0.56019733  0.89373483  0.06640568    -0.03600
N418        N  0.59667567  0.85623081  0.07641662    -0.58700
N419        N  0.56020306  0.93292373  0.10559328    -0.03100
N420        N  0.59668500  0.92290832  0.14309103    -0.56000
N421        N  0.94158686  0.89375304  0.06640944    -0.02800
N422        N  0.90510281  0.85625774  0.07642260    -0.58500
C423        C  0.88251185  0.87539732  0.12396221     0.98300
C424        C  0.61927352  0.87536687  0.12395323     0.98100
N425        N  0.56019712  0.93292152  0.39438612    -0.04100
N426        N  0.59667915  0.92290614  0.35688783    -0.56600
N427        N  0.94158407  0.89375226  0.43357702    -0.02200
N428        N  0.90509914  0.85625742  0.42356584    -0.57800
N429        N  0.94158690  0.93293826  0.39438896    -0.04100
N430        N  0.90510363  0.92292927  0.35689002    -0.56800
N431        N  0.56019314  0.89373489  0.43357351    -0.01800
N432        N  0.59667299  0.85623209  0.42356185    -0.57900
Mn433      Mn  0.50089014  0.89213023  0.49999117     1.18400
C434        C  0.61926916  0.87536706  0.37602538     1.00400
C435        C  0.88250586  0.87539580  0.37602872     1.01100
N436        N  0.56021814  0.56575501  0.10559232    -0.04100
N437        N  0.59670130  0.57576402  0.14309100    -0.60400
N438        N  0.94161177  0.60495860  0.06640775    -0.02900
N439        N  0.90513232  0.64246122  0.07641924    -0.61100
N440        N  0.94160810  0.56577169  0.10559497    -0.03600
N441        N  0.90512604  0.57578721  0.14309334    -0.60700
N442        N  0.56022098  0.60494111  0.06640397    -0.02500
N443        N  0.59670573  0.64243580  0.07641523    -0.61400
Mn444      Mn  0.00090531  0.49934796  0.10720846     1.10700
C445        C  0.61929925  0.62329757  0.12395237     1.01600
C446        C  0.88253593  0.62332652  0.12395622     1.01700
N447        N  0.94160204  0.56576965  0.39438776    -0.03600
N448        N  0.90512017  0.57578500  0.35688994    -0.59000
N449        N  0.56021826  0.60494038  0.43357172    -0.02900
N450        N  0.59670232  0.64243540  0.42355846    -0.55700
N451        N  0.56021366  0.56575298  0.39438277    -0.04200
N452        N  0.59669462  0.57576098  0.35688120    -0.58600
N453        N  0.94160780  0.60495834  0.43357530    -0.03200
N454        N  0.90512955  0.64246257  0.42356434    -0.55700
Mn455      Mn  0.50089980  0.99934529  0.39277269     1.20200
Mn456      Mn  0.00091486  0.60656301  0.99998989     1.10100
Cl457      Cl  0.50090250  0.49934669  0.99999051    -0.83700
C458        C  0.88253164  0.62332645  0.37602768     0.98600
C459        C  0.61929309  0.62329591  0.37601882     0.98400
C460        C  0.72112398  0.71679480  0.28253487    -0.00200
C461        C  0.72111234  0.78188616  0.28253661    -0.00200
C462        C  0.72111446  0.78188673  0.21744385    -0.00200
C463        C  0.72112643  0.71679527  0.21744220    -0.00200
C464        C  0.78069052  0.71680654  0.28253730    -0.00200
C465        C  0.78069273  0.71680710  0.21744445    -0.00200
C466        C  0.78068102  0.78189858  0.21744614    -0.00200
C467        C  0.78067855  0.78189799  0.28253884    -0.00200
C468        C  0.65787833  0.65395652  0.34535474    -0.11000
C469        C  0.68767783  0.68150119  0.31781724    -0.12600
C470        C  0.68766069  0.81716548  0.18215602    -0.11000
C471        C  0.65785820  0.84470275  0.15461402    -0.12600
C472        C  0.81414719  0.68152771  0.18215779    -0.11000
C473        C  0.84395053  0.65398968  0.15461645    -0.12600
C474        C  0.68768354  0.68150267  0.18215500    -0.11000
C475        C  0.65788469  0.65395864  0.15461524    -0.12600
C476        C  0.84392023  0.84473457  0.34536585    -0.11000
C477        C  0.81412157  0.81719066  0.31782613    -0.12600
C478        C  0.81414435  0.68152793  0.31782493    -0.11000
C479        C  0.84394701  0.65399049  0.34536709    -0.12600
C480        C  0.65785484  0.84470362  0.34536473    -0.11000
C481        C  0.68765776  0.81716577  0.31782363    -0.12600
C482        C  0.81412706  0.81719199  0.18216395    -0.11000
C483        C  0.84392689  0.84473676  0.15462624    -0.12600
N484        N  0.94159157  0.93294039  0.60559812    -0.03900
N485        N  0.90511046  0.92293206  0.64309999    -0.56000
N486        N  0.56019725  0.89373482  0.56640581    -0.03600
N487        N  0.59667558  0.85623085  0.57641657    -0.58700
N488        N  0.56020289  0.93292367  0.60559318    -0.03100
N489        N  0.59668513  0.92290834  0.64309105    -0.56000
N490        N  0.94158680  0.89375287  0.56640951    -0.02800
N491        N  0.90510306  0.85625775  0.57642256    -0.58500
C492        C  0.88251185  0.87539746  0.62396227     0.98300
C493        C  0.61927342  0.87536697  0.62395321     0.98100
N494        N  0.56019693  0.93292176  0.89438634    -0.04100
N495        N  0.59667931  0.92290603  0.85688767    -0.56600
N496        N  0.94158412  0.89375242  0.93357690    -0.02200
N497        N  0.90509912  0.85625757  0.92356593    -0.57800
N498        N  0.94158690  0.93293824  0.89438908    -0.04100
N499        N  0.90510356  0.92292944  0.85688998    -0.56800
N500        N  0.56019339  0.89373479  0.93357332    -0.01800
N501        N  0.59667289  0.85623219  0.92356198    -0.57900
Mn502      Mn  0.50089019  0.89213031  0.99999115     1.18400
C503        C  0.61926926  0.87536715  0.87602521     1.00400
C504        C  0.88250582  0.87539580  0.87602862     1.01100
N505        N  0.56021808  0.56575502  0.60559206    -0.04100
N506        N  0.59670149  0.57576383  0.64309113    -0.60400
N507        N  0.94161178  0.60495850  0.56640774    -0.02900
N508        N  0.90513233  0.64246107  0.57641932    -0.61100
N509        N  0.94160820  0.56577153  0.60559491    -0.03600
N510        N  0.90512597  0.57578718  0.64309349    -0.60700
N511        N  0.56022106  0.60494090  0.56640421    -0.02500
N512        N  0.59670585  0.64243562  0.57641511    -0.61400
Mn513      Mn  0.00090526  0.49934793  0.60720841     1.10700
C514        C  0.61929928  0.62329753  0.62395258     1.01600
C515        C  0.88253604  0.62332618  0.62395605     1.01700
N516        N  0.94160227  0.56576949  0.89438786    -0.03600
N517        N  0.90512002  0.57578499  0.85688989    -0.59000
N518        N  0.56021826  0.60494047  0.93357165    -0.02900
N519        N  0.59670201  0.64243546  0.92355844    -0.55700
N520        N  0.56021356  0.56575283  0.89438297    -0.04200
N521        N  0.59669460  0.57576107  0.85688113    -0.58600
N522        N  0.94160767  0.60495856  0.93357529    -0.03200
N523        N  0.90512961  0.64246254  0.92356432    -0.55700
Mn524      Mn  0.50089989  0.99934540  0.89277274     1.20200
Mn525      Mn  0.00091487  0.60656291  0.49998990     1.10100
Cl526      Cl  0.50090250  0.49934663  0.49999049    -0.83700
C527        C  0.88253185  0.62332632  0.87602766     0.98600
C528        C  0.61929314  0.62329593  0.87601884     0.98400
C529        C  0.72112405  0.71679474  0.78253497    -0.00200
C530        C  0.72111231  0.78188621  0.78253662    -0.00200
C531        C  0.72111457  0.78188676  0.71744390    -0.00200
C532        C  0.72112629  0.71679518  0.71744203    -0.00200
C533        C  0.78069051  0.71680649  0.78253718    -0.00200
C534        C  0.78069272  0.71680712  0.71744452    -0.00200
C535        C  0.78068105  0.78189855  0.71744610    -0.00200
C536        C  0.78067872  0.78189811  0.78253897    -0.00200
C537        C  0.65787826  0.65395650  0.84535479    -0.11000
C538        C  0.68767778  0.68150120  0.81781712    -0.12600
C539        C  0.68766070  0.81716557  0.68215601    -0.11000
C540        C  0.65785825  0.84470287  0.65461405    -0.12600
C541        C  0.81414741  0.68152760  0.68215758    -0.11000
C542        C  0.84395042  0.65398966  0.65461662    -0.12600
C543        C  0.68768371  0.68150277  0.68215519    -0.11000
C544        C  0.65788457  0.65395849  0.65461504    -0.12600
C545        C  0.84392037  0.84473464  0.84536605    -0.11000
C546        C  0.81412142  0.81719054  0.81782598    -0.12600
C547        C  0.81414461  0.68152768  0.81782512    -0.11000
C548        C  0.84394693  0.65399054  0.84536694    -0.12600
C549        C  0.65785482  0.84470362  0.84536480    -0.11000
C550        C  0.68765775  0.81716573  0.81782352    -0.12600
C551        C  0.81412722  0.81719208  0.68216399    -0.11000
C552        C  0.84392683  0.84473686  0.65462629    -0.12600
loop_ 
_geom_bond_atom_site_label_1 
_geom_bond_atom_site_label_2 
_geom_bond_distance 
_geom_bond_site_symmetry_2 
_ccdc_geom_bond_type 
N1            N2   1.321       .  A
N1            N7   1.316       .  A
N1         Mn168   2.203       .  S
N2            C9   1.351       .  A
N3            N5   1.316       .  A
N3            N4   1.321       .  A
N3          Mn88   2.203   1_554  S
N4           C10   1.351       .  A
N5            N6   1.321       .  A
N5         Mn444   2.203       .  S
N6           C10   1.351       .  A
N7            N8   1.321       .  A
N7         Mn364   2.203   1_554  S
N8            C9   1.351       .  A
C9           C69   1.436       .  S
C10          C57   1.436       .  S
N11          N17   1.316       .  A
N11          N12   1.321       .  A
N11         Mn41   2.203       .  S
N12          C20   1.351       .  A
N13          N14   1.321       .  A
N13          N15   1.316       .  A
N13        Mn295   2.203       .  S
N14          C21   1.351       .  A
N15          N16   1.321       .  A
N15        Mn317   2.203       .  S
N16          C21   1.351       .  A
N17          N18   1.321       .  A
N17         Mn19   2.203       .  S
N18          C20   1.351       .  A
Mn19         N72   2.203       .  S
Mn19        N352   2.203   1_455  S
Mn19        N289   2.203   1_455  S
Mn19       Cl250   2.547       .  S
C20          C66   1.436       .  S
C21          C62   1.436       .  S
N22          N23   1.321       .  A
N22          N28   1.316       .  A
N22        Mn306   2.203   1_545  S
N23          C31   1.351       .  A
N24          N26   1.316       .  A
N24          N25   1.321       .  A
N24         Mn42   2.203   1_554  S
N25          C32   1.351       .  A
N26          N27   1.321       .  A
N26         Mn30   2.203   1_545  S
N27          C32   1.351       .  A
N28          N29   1.321       .  A
N28        Mn318   2.203   1_554  S
N29          C31   1.351       .  A
Mn30        N139   2.203       .  S
Mn30        N419   2.203       .  S
Mn30        N298   2.203   1_565  S
Mn30       Cl319   2.547   1_554  S
C31          C61   1.436       .  S
C32          C59   1.436       .  S
N33          N34   1.321       .  A
N33          N39   1.316       .  A
N33        Mn455   2.203   1_545  S
N34          C44   1.351       .  A
N35          N36   1.321       .  A
N35          N37   1.316       .  A
N35        Mn387   2.203       .  S
N36          C45   1.351       .  A
N37          N38   1.321       .  A
N37        Mn179   2.203   1_545  S
N38          C45   1.351       .  A
N39          N40   1.321       .  A
N39        Mn111   2.203       .  S
N40          C44   1.351       .  A
Mn41        N291   2.203   1_455  S
Mn41        N447   2.203   1_455  S
Mn41        N175   2.203       .  S
Mn41       Cl250   2.547       .  S
Mn42        N304   2.203   1_556  S
Mn42        N380   2.203       .  S
Mn42        N108   2.203       .  S
Mn42       Cl319   2.547   1_545  S
Cl43       Mn226   2.547       .  S
Cl43       Mn306   2.547   1_556  S
Cl43       Mn248   2.547       .  S
Cl43       Mn318   2.547   1_565  S
C44          C65   1.436       .  S
C45          C54   1.436       .  S
C46          C47   1.546       .  S
C46          C49   1.546       .  S
C46          C50   1.544       .  S
C46          C55   1.469       .  S
C47          C48   1.546       .  S
C47          C53   1.544       .  S
C47          C67   1.469       .  S
C48          C49   1.546       .  S
C48          C52   1.544       .  S
C48          C56   1.469       .  S
C49          C51   1.544       .  S
C49          C60   1.469       .  S
C50          C51   1.546       .  S
C50          C53   1.546       .  S
C50          C64   1.469       .  S
C51          C52   1.546       .  S
C51          C58   1.469       .  S
C52          C53   1.546       .  S
C52          C68   1.469       .  S
C53          C63   1.469       .  S
C54          C55   1.205       .  T
C56          C57   1.205       .  T
C58          C59   1.205       .  T
C60          C61   1.205       .  T
C62          C63   1.205       .  T
C64          C65   1.205       .  T
C66          C67   1.205       .  T
C68          C69   1.205       .  T
N70          N71   1.321       .  A
N70          N76   1.316       .  A
N70        Mn237   2.203       .  S
N71          C78   1.351       .  A
N72          N74   1.316       .  A
N72          N73   1.321       .  A
N73          C79   1.351       .  A
N74          N75   1.321       .  A
N74        Mn513   2.203       .  S
N75          C79   1.351       .  A
N76          N77   1.321       .  A
N76        Mn295   2.203       .  S
N77          C78   1.351       .  A
C78         C138   1.436       .  S
C79         C126   1.436       .  S
N80          N86   1.316       .  A
N80          N81   1.321       .  A
N80        Mn110   2.203       .  S
N81          C89   1.351       .  A
N82          N83   1.321       .  A
N82          N84   1.316       .  A
N82        Mn364   2.203       .  S
N83          C90   1.351       .  A
N84          N85   1.321       .  A
N84        Mn386   2.203       .  S
N85          C90   1.351       .  A
N86          N87   1.321       .  A
N86         Mn88   2.203       .  S
N87          C89   1.351       .  A
Mn88        N283   2.203   1_456  S
Mn88        N358   2.203   1_455  S
Mn88       Cl181   2.547       .  S
C89         C135   1.436       .  S
C90         C131   1.436       .  S
N91          N92   1.321       .  A
N91          N97   1.316       .  A
N91        Mn375   2.203   1_545  S
N92         C100   1.351       .  A
N93          N95   1.316       .  A
N93          N94   1.321       .  A
N93        Mn111   2.203       .  S
N94         C101   1.351       .  A
N95          N96   1.321       .  A
N95         Mn99   2.203   1_545  S
N96         C101   1.351       .  A
N97          N98   1.321       .  A
N97        Mn387   2.203       .  S
N98         C100   1.351       .  A
Mn99        N208   2.203       .  S
Mn99        N488   2.203       .  S
Mn99        N367   2.203   1_565  S
Mn99       Cl388   2.547       .  S
C100        C130   1.436       .  S
C101        C128   1.436       .  S
N102        N103   1.321       .  A
N102        N108   1.316       .  A
N102       Mn524   2.203   1_545  S
N103        C113   1.351       .  A
N104        N105   1.321       .  A
N104        N106   1.316       .  A
N104       Mn318   2.203       .  S
N105        C114   1.351       .  A
N106        N107   1.321       .  A
N106       Mn248   2.203   1_545  S
N107        C114   1.351       .  A
N108        N109   1.321       .  A
N109        C113   1.351       .  A
Mn110       N360   2.203   1_455  S
Mn110       N516   2.203   1_455  S
Mn110       N244   2.203       .  S
Mn110      Cl181   2.547       .  S
Mn111       N373   2.203       .  S
Mn111       N311   2.203       .  S
Mn111      Cl388   2.547   1_545  S
Cl112      Mn157   2.547       .  S
Cl112      Mn375   2.547       .  S
Cl112      Mn179   2.547       .  S
Cl112      Mn387   2.547   1_565  S
C113        C134   1.436       .  S
C114        C123   1.436       .  S
C115        C116   1.546       .  S
C115        C118   1.546       .  S
C115        C119   1.544       .  S
C115        C124   1.469       .  S
C116        C117   1.546       .  S
C116        C122   1.544       .  S
C116        C136   1.469       .  S
C117        C118   1.546       .  S
C117        C121   1.544       .  S
C117        C125   1.469       .  S
C118        C120   1.544       .  S
C118        C129   1.469       .  S
C119        C120   1.546       .  S
C119        C122   1.546       .  S
C119        C133   1.469       .  S
C120        C121   1.546       .  S
C120        C127   1.469       .  S
C121        C122   1.546       .  S
C121        C137   1.469       .  S
C122        C132   1.469       .  S
C123        C124   1.205       .  T
C125        C126   1.205       .  T
C127        C128   1.205       .  T
C129        C130   1.205       .  T
C131        C132   1.205       .  T
C133        C134   1.205       .  T
C135        C136   1.205       .  T
C137        C138   1.205       .  T
N139        N140   1.321       .  A
N139        N145   1.316       .  A
N140        C147   1.351       .  A
N141        N143   1.316       .  A
N141        N142   1.321       .  A
N141       Mn226   2.203   1_554  S
N142        C148   1.351       .  A
N143        N144   1.321       .  A
N143       Mn306   2.203       .  S
N144        C148   1.351       .  A
N145        N146   1.321       .  A
N145       Mn502   2.203   1_554  S
N146        C147   1.351       .  A
C147        C207   1.436       .  S
C148        C195   1.436       .  S
N149        N155   1.316       .  A
N149        N150   1.321       .  A
N149       Mn179   2.203       .  S
N150        C158   1.351       .  A
N151        N152   1.321       .  A
N151        N153   1.316       .  A
N151       Mn433   2.203       .  S
N152        C159   1.351       .  A
N153        N154   1.321       .  A
N153       Mn455   2.203       .  S
N154        C159   1.351       .  A
N155        N156   1.321       .  A
N155       Mn157   2.203       .  S
N156        C158   1.351       .  A
Mn157       N210   2.203       .  S
Mn157       N490   2.203   1_455  S
Mn157       N427   2.203   1_455  S
C158        C204   1.436       .  S
C159        C200   1.436       .  S
N160        N161   1.321       .  A
N160        N166   1.316       .  A
N160       Mn444   2.203       .  S
N161        C169   1.351       .  A
N162        N164   1.316       .  A
N162        N163   1.321       .  A
N162       Mn180   2.203   1_554  S
N163        C170   1.351       .  A
N164        N165   1.321       .  A
N164       Mn168   2.203       .  S
N165        C170   1.351       .  A
N166        N167   1.321       .  A
N166       Mn456   2.203   1_554  S
N167        C169   1.351       .  A
Mn168       N281   2.203       .  S
Mn168       N436   2.203       .  S
Mn168      Cl457   2.547   1_554  S
C169        C199   1.436       .  S
C170        C197   1.436       .  S
N171        N172   1.321       .  A
N171        N177   1.316       .  A
N171       Mn317   2.203       .  S
N172        C182   1.351       .  A
N173        N174   1.321       .  A
N173        N175   1.316       .  A
N173       Mn525   2.203       .  S
N174        C183   1.351       .  A
N175        N176   1.321       .  A
N176        C183   1.351       .  A
N177        N178   1.321       .  A
N177       Mn249   2.203       .  S
N178        C182   1.351       .  A
Mn179       N429   2.203   1_455  S
Mn179       N309   2.203   1_465  S
Mn180       N442   2.203   1_556  S
Mn180       N518   2.203       .  S
Mn180       N246   2.203       .  S
Mn180      Cl457   2.547       .  S
Cl181      Mn444   2.547   1_556  S
Cl181      Mn456   2.547       .  S
C182        C203   1.436       .  S
C183        C192   1.436       .  S
C184        C185   1.546       .  S
C184        C187   1.546       .  S
C184        C188   1.544       .  S
C184        C193   1.469       .  S
C185        C186   1.546       .  S
C185        C191   1.544       .  S
C185        C205   1.469       .  S
C186        C187   1.546       .  S
C186        C190   1.544       .  S
C186        C194   1.469       .  S
C187        C189   1.544       .  S
C187        C198   1.469       .  S
C188        C189   1.546       .  S
C188        C191   1.546       .  S
C188        C202   1.469       .  S
C189        C190   1.546       .  S
C189        C196   1.469       .  S
C190        C191   1.546       .  S
C190        C206   1.469       .  S
C191        C201   1.469       .  S
C192        C193   1.205       .  T
C194        C195   1.205       .  T
C196        C197   1.205       .  T
C198        C199   1.205       .  T
C200        C201   1.205       .  T
C202        C203   1.205       .  T
C204        C205   1.205       .  T
C206        C207   1.205       .  T
N208        N209   1.321       .  A
N208        N214   1.316       .  A
N209        C216   1.351       .  A
N210        N212   1.316       .  A
N210        N211   1.321       .  A
N211        C217   1.351       .  A
N212        N213   1.321       .  A
N212       Mn375   2.203       .  S
N213        C217   1.351       .  A
N214        N215   1.321       .  A
N214       Mn433   2.203       .  S
N215        C216   1.351       .  A
C216        C276   1.436       .  S
C217        C264   1.436       .  S
N218        N224   1.316       .  A
N218        N219   1.321       .  A
N218       Mn248   2.203       .  S
N219        C227   1.351       .  A
N220        N221   1.321       .  A
N220        N222   1.316       .  A
N220       Mn502   2.203       .  S
N221        C228   1.351       .  A
N222        N223   1.321       .  A
N222       Mn524   2.203       .  S
N223        C228   1.351       .  A
N224        N225   1.321       .  A
N224       Mn226   2.203       .  S
N225        C227   1.351       .  A
Mn226       N421   2.203   1_456  S
Mn226       N496   2.203   1_455  S
C227        C273   1.436       .  S
C228        C269   1.436       .  S
N229        N230   1.321       .  A
N229        N235   1.316       .  A
N229       Mn513   2.203       .  S
N230        C238   1.351       .  A
N231        N233   1.316       .  A
N231        N232   1.321       .  A
N231       Mn249   2.203       .  S
N232        C239   1.351       .  A
N233        N234   1.321       .  A
N233       Mn237   2.203       .  S
N234        C239   1.351       .  A
N235        N236   1.321       .  A
N235       Mn525   2.203       .  S
N236        C238   1.351       .  A
Mn237       N350   2.203       .  S
Mn237       N505   2.203       .  S
Mn237      Cl526   2.547       .  S
C238        C268   1.436       .  S
C239        C266   1.436       .  S
N240        N241   1.321       .  A
N240        N246   1.316       .  A
N240       Mn386   2.203       .  S
N241        C251   1.351       .  A
N242        N243   1.321       .  A
N242        N244   1.316       .  A
N242       Mn456   2.203       .  S
N243        C252   1.351       .  A
N244        N245   1.321       .  A
N245        C252   1.351       .  A
N246        N247   1.321       .  A
N247        C251   1.351       .  A
Mn248       N498   2.203   1_455  S
Mn248       N378   2.203   1_465  S
Mn249       N511   2.203       .  S
Mn249       N449   2.203       .  S
Mn249      Cl526   2.547       .  S
Cl250      Mn513   2.547       .  S
Cl250      Mn525   2.547       .  S
C251        C272   1.436       .  S
C252        C261   1.436       .  S
C253        C254   1.546       .  S
C253        C256   1.546       .  S
C253        C257   1.544       .  S
C253        C262   1.469       .  S
C254        C255   1.546       .  S
C254        C260   1.544       .  S
C254        C274   1.469       .  S
C255        C256   1.546       .  S
C255        C259   1.544       .  S
C255        C263   1.469       .  S
C256        C258   1.544       .  S
C256        C267   1.469       .  S
C257        C258   1.546       .  S
C257        C260   1.546       .  S
C257        C271   1.469       .  S
C258        C259   1.546       .  S
C258        C265   1.469       .  S
C259        C260   1.546       .  S
C259        C275   1.469       .  S
C260        C270   1.469       .  S
C261        C262   1.205       .  T
C263        C264   1.205       .  T
C265        C266   1.205       .  T
C267        C268   1.205       .  T
C269        C270   1.205       .  T
C271        C272   1.205       .  T
C273        C274   1.205       .  T
C275        C276   1.205       .  T
N277        N278   1.321       .  A
N277        N283   1.316       .  A
N277       Mn444   2.203   1_655  S
N278        C285   1.351       .  A
N279        N281   1.316       .  A
N279        N280   1.321       .  A
N279       Mn364   2.203   1_554  S
N280        C286   1.351       .  A
N281        N282   1.321       .  A
N282        C286   1.351       .  A
N283        N284   1.321       .  A
N284        C285   1.351       .  A
C285        C345   1.436       .  S
C286        C333   1.436       .  S
N287        N293   1.316       .  A
N287        N288   1.321       .  A
N287       Mn317   2.203       .  S
N288        C296   1.351       .  A
N289        N290   1.321       .  A
N289        N291   1.316       .  A
N290        C297   1.351       .  A
N291        N292   1.321       .  A
N292        C297   1.351       .  A
N293        N294   1.321       .  A
N293       Mn295   2.203       .  S
N294        C296   1.351       .  A
Mn295       N348   2.203       .  S
Mn295      Cl526   2.547       .  S
C296        C342   1.436       .  S
C297        C338   1.436       .  S
N298        N299   1.321       .  A
N298        N304   1.316       .  A
N299        C307   1.351       .  A
N300        N302   1.316       .  A
N300        N301   1.321       .  A
N300       Mn318   2.203   1_654  S
N301        C308   1.351       .  A
N302        N303   1.321       .  A
N302       Mn306   2.203   1_645  S
N303        C308   1.351       .  A
N304        N305   1.321       .  A
N305        C307   1.351       .  A
Mn306       N415   2.203   1_455  S
C307        C337   1.436       .  S
C308        C335   1.436       .  S
N309        N310   1.321       .  A
N309        N315   1.316       .  A
N310        C320   1.351       .  A
N311        N312   1.321       .  A
N311        N313   1.316       .  A
N312        C321   1.351       .  A
N313        N314   1.321       .  A
N313       Mn455   2.203   1_545  S
N314        C321   1.351       .  A
N315        N316   1.321       .  A
N315       Mn387   2.203   1_655  S
N316        C320   1.351       .  A
Mn317       N451   2.203       .  S
Mn317      Cl526   2.547       .  S
Mn318       N384   2.203   1_455  S
Cl319      Mn502   2.547       .  S
Cl319      Mn524   2.547       .  S
C320        C341   1.436       .  S
C321        C330   1.436       .  S
C322        C323   1.546       .  S
C322        C325   1.546       .  S
C322        C326   1.544       .  S
C322        C331   1.469       .  S
C323        C324   1.546       .  S
C323        C329   1.544       .  S
C323        C343   1.469       .  S
C324        C325   1.546       .  S
C324        C328   1.544       .  S
C324        C332   1.469       .  S
C325        C327   1.544       .  S
C325        C336   1.469       .  S
C326        C327   1.546       .  S
C326        C329   1.546       .  S
C326        C340   1.469       .  S
C327        C328   1.546       .  S
C327        C334   1.469       .  S
C328        C329   1.546       .  S
C328        C344   1.469       .  S
C329        C339   1.469       .  S
C330        C331   1.205       .  T
C332        C333   1.205       .  T
C334        C335   1.205       .  T
C336        C337   1.205       .  T
C338        C339   1.205       .  T
C340        C341   1.205       .  T
C342        C343   1.205       .  T
C344        C345   1.205       .  T
N346        N347   1.321       .  A
N346        N352   1.316       .  A
N346       Mn513   2.203   1_655  S
N347        C354   1.351       .  A
N348        N350   1.316       .  A
N348        N349   1.321       .  A
N349        C355   1.351       .  A
N350        N351   1.321       .  A
N351        C355   1.351       .  A
N352        N353   1.321       .  A
N353        C354   1.351       .  A
C354        C414   1.436       .  S
C355        C402   1.436       .  S
N356        N362   1.316       .  A
N356        N357   1.321       .  A
N356       Mn386   2.203       .  S
N357        C365   1.351       .  A
N358        N359   1.321       .  A
N358        N360   1.316       .  A
N359        C366   1.351       .  A
N360        N361   1.321       .  A
N361        C366   1.351       .  A
N362        N363   1.321       .  A
N362       Mn364   2.203       .  S
N363        C365   1.351       .  A
Mn364      Cl457   2.547       .  S
C365        C411   1.436       .  S
C366        C407   1.436       .  S
N367        N368   1.321       .  A
N367        N373   1.316       .  A
N368        C376   1.351       .  A
N369        N371   1.316       .  A
N369        N370   1.321       .  A
N369       Mn387   2.203   1_655  S
N370        C377   1.351       .  A
N371        N372   1.321       .  A
N371       Mn375   2.203   1_645  S
N372        C377   1.351       .  A
N373        N374   1.321       .  A
N374        C376   1.351       .  A
Mn375       N484   2.203   1_455  S
C376        C406   1.436       .  S
C377        C404   1.436       .  S
N378        N379   1.321       .  A
N378        N384   1.316       .  A
N379        C389   1.351       .  A
N380        N381   1.321       .  A
N380        N382   1.316       .  A
N381        C390   1.351       .  A
N382        N383   1.321       .  A
N382       Mn524   2.203   1_545  S
N383        C390   1.351       .  A
N384        N385   1.321       .  A
N385        C389   1.351       .  A
Mn386       N520   2.203       .  S
Mn386      Cl457   2.547       .  S
Cl388      Mn433   2.547       .  S
Cl388      Mn455   2.547       .  S
C389        C410   1.436       .  S
C390        C399   1.436       .  S
C391        C392   1.546       .  S
C391        C394   1.546       .  S
C391        C395   1.544       .  S
C391        C400   1.469       .  S
C392        C393   1.546       .  S
C392        C398   1.544       .  S
C392        C412   1.469       .  S
C393        C394   1.546       .  S
C393        C397   1.544       .  S
C393        C401   1.469       .  S
C394        C396   1.544       .  S
C394        C405   1.469       .  S
C395        C396   1.546       .  S
C395        C398   1.546       .  S
C395        C409   1.469       .  S
C396        C397   1.546       .  S
C396        C403   1.469       .  S
C397        C398   1.546       .  S
C397        C413   1.469       .  S
C398        C408   1.469       .  S
C399        C400   1.205       .  T
C401        C402   1.205       .  T
C403        C404   1.205       .  T
C405        C406   1.205       .  T
C407        C408   1.205       .  T
C409        C410   1.205       .  T
C411        C412   1.205       .  T
C413        C414   1.205       .  T
N415        N416   1.321       .  A
N415        N421   1.316       .  A
N416        C423   1.351       .  A
N417        N419   1.316       .  A
N417        N418   1.321       .  A
N417       Mn502   2.203   1_554  S
N418        C424   1.351       .  A
N419        N420   1.321       .  A
N420        C424   1.351       .  A
N421        N422   1.321       .  A
N422        C423   1.351       .  A
C423        C483   1.436       .  S
C424        C471   1.436       .  S
N425        N431   1.316       .  A
N425        N426   1.321       .  A
N425       Mn455   2.203       .  S
N426        C434   1.351       .  A
N427        N428   1.321       .  A
N427        N429   1.316       .  A
N428        C435   1.351       .  A
N429        N430   1.321       .  A
N430        C435   1.351       .  A
N431        N432   1.321       .  A
N431       Mn433   2.203       .  S
N432        C434   1.351       .  A
Mn433       N486   2.203       .  S
C434        C480   1.436       .  S
C435        C476   1.436       .  S
N436        N437   1.321       .  A
N436        N442   1.316       .  A
N437        C445   1.351       .  A
N438        N440   1.316       .  A
N438        N439   1.321       .  A
N438       Mn456   2.203   1_654  S
N439        C446   1.351       .  A
N440        N441   1.321       .  A
N440       Mn444   2.203   1_655  S
N441        C446   1.351       .  A
N442        N443   1.321       .  A
N443        C445   1.351       .  A
C445        C475   1.436       .  S
C446        C473   1.436       .  S
N447        N448   1.321       .  A
N447        N453   1.316       .  A
N448        C458   1.351       .  A
N449        N450   1.321       .  A
N449        N451   1.316       .  A
N450        C459   1.351       .  A
N451        N452   1.321       .  A
N452        C459   1.351       .  A
N453        N454   1.321       .  A
N453       Mn525   2.203   1_655  S
N454        C458   1.351       .  A
Mn456       N522   2.203   1_455  S
C458        C479   1.436       .  S
C459        C468   1.436       .  S
C460        C461   1.546       .  S
C460        C463   1.546       .  S
C460        C464   1.544       .  S
C460        C469   1.469       .  S
C461        C462   1.546       .  S
C461        C467   1.544       .  S
C461        C481   1.469       .  S
C462        C463   1.546       .  S
C462        C466   1.544       .  S
C462        C470   1.469       .  S
C463        C465   1.544       .  S
C463        C474   1.469       .  S
C464        C465   1.546       .  S
C464        C467   1.546       .  S
C464        C478   1.469       .  S
C465        C466   1.546       .  S
C465        C472   1.469       .  S
C466        C467   1.546       .  S
C466        C482   1.469       .  S
C467        C477   1.469       .  S
C468        C469   1.205       .  T
C470        C471   1.205       .  T
C472        C473   1.205       .  T
C474        C475   1.205       .  T
C476        C477   1.205       .  T
C478        C479   1.205       .  T
C480        C481   1.205       .  T
C482        C483   1.205       .  T
N484        N485   1.321       .  A
N484        N490   1.316       .  A
N485        C492   1.351       .  A
N486        N488   1.316       .  A
N486        N487   1.321       .  A
N487        C493   1.351       .  A
N488        N489   1.321       .  A
N489        C493   1.351       .  A
N490        N491   1.321       .  A
N491        C492   1.351       .  A
C492        C552   1.436       .  S
C493        C540   1.436       .  S
N494        N500   1.316       .  A
N494        N495   1.321       .  A
N494       Mn524   2.203       .  S
N495        C503   1.351       .  A
N496        N497   1.321       .  A
N496        N498   1.316       .  A
N497        C504   1.351       .  A
N498        N499   1.321       .  A
N499        C504   1.351       .  A
N500        N501   1.321       .  A
N500       Mn502   2.203       .  S
N501        C503   1.351       .  A
C503        C549   1.436       .  S
C504        C545   1.436       .  S
N505        N506   1.321       .  A
N505        N511   1.316       .  A
N506        C514   1.351       .  A
N507        N509   1.316       .  A
N507        N508   1.321       .  A
N507       Mn525   2.203   1_655  S
N508        C515   1.351       .  A
N509        N510   1.321       .  A
N509       Mn513   2.203   1_655  S
N510        C515   1.351       .  A
N511        N512   1.321       .  A
N512        C514   1.351       .  A
C514        C544   1.436       .  S
C515        C542   1.436       .  S
N516        N517   1.321       .  A
N516        N522   1.316       .  A
N517        C527   1.351       .  A
N518        N519   1.321       .  A
N518        N520   1.316       .  A
N519        C528   1.351       .  A
N520        N521   1.321       .  A
N521        C528   1.351       .  A
N522        N523   1.321       .  A
N523        C527   1.351       .  A
C527        C548   1.436       .  S
C528        C537   1.436       .  S
C529        C530   1.546       .  S
C529        C532   1.546       .  S
C529        C533   1.544       .  S
C529        C538   1.469       .  S
C530        C531   1.546       .  S
C530        C536   1.544       .  S
C530        C550   1.469       .  S
C531        C532   1.546       .  S
C531        C535   1.544       .  S
C531        C539   1.469       .  S
C532        C534   1.544       .  S
C532        C543   1.469       .  S
C533        C534   1.546       .  S
C533        C536   1.546       .  S
C533        C547   1.469       .  S
C534        C535   1.546       .  S
C534        C541   1.469       .  S
C535        C536   1.546       .  S
C535        C551   1.469       .  S
C536        C546   1.469       .  S
C537        C538   1.205       .  T
C539        C540   1.205       .  T
C541        C542   1.205       .  T
C543        C544   1.205       .  T
C545        C546   1.205       .  T
C547        C548   1.205       .  T
C549        C550   1.205       .  T
C551        C552   1.205       .  T
