geometry optimzed in LAMMPS
_audit_creation_date              2020-12-01 
_audit_creation_method            'lammps2cif' 
_symmetry_space_group_name_H-M    'P1' 
_symmetry_Int_Tables_number       1 
_symmetry_cell_setting            triclinic 
loop_ 
_symmetry_equiv_pos_as_xyz 
  x,y,z 
_cell_length_a                    37.92735767 
_cell_length_b                    37.856999469190015 
_cell_length_c                    24.5539004400012 
_cell_angle_alpha                 89.85084907176783 
_cell_angle_beta                  89.82269980556964 
_cell_angle_gamma                 123.93242215844985 
loop_ 
_atom_site_label 
_atom_site_type_symbol 
_atom_site_fract_x 
_atom_site_fract_y 
_atom_site_fract_z 
_atom_site_charge 
N1          N  0.49464955  0.84551328  0.49831919    -0.00800
C2          C  0.50071770  0.81391021  0.48966216     0.01800
C3          C  0.49344212  0.79290207  0.03295637    -0.21100
C4          C  0.47346667  0.80598160  0.06603841    -0.21300
C5          C  0.48029332  0.84259314  0.04299691     0.01700
H6          H  0.49465305  0.76543561  0.04030360     0.15500
H7          H  0.45817132  0.79193098  0.10473058     0.15500
N8          N  0.33268221  0.91013505  0.04392054    -0.00800
C9          C  0.30234285  0.86861553  0.03413670     0.01800
C10         C  0.32645128  0.85277627  0.50844186    -0.21100
C11         C  0.36147098  0.89033466  0.48859697    -0.21300
C12         C  0.36135590  0.92316058  0.51299754     0.01700
H13         H  0.31734250  0.82094851  0.49830082     0.15500
H14         H  0.38568064  0.89284604  0.46250375     0.15500
C15         C  0.48819154  0.91735751  0.39687202     0.45200
N16         N  0.47836935  0.94580125  0.32774593     0.04000
C17         C  0.62942819  0.12153393  0.17704620    -0.03800
H18         H  0.61794941  0.14858961  0.39257807     0.09500
C19         C  0.47814010  0.11767040  0.36100350    -0.04200
Co20       Co  0.56029181  0.01472933  0.27734621     0.74200
N21         N  0.59303217  0.09527166  0.33824840    -0.23400
Co22       Co  0.56850942  0.11055473  0.27400083     0.74100
C23         C  0.51627375  0.15092228  0.38908694     0.45300
N24         N  0.42202258  0.00947569  0.32354362     0.03700
N25         N  0.53378309  0.12222760  0.32883768     0.03800
N26         N  0.62199939  0.05816427  0.18243634    -0.44200
H27         H  0.56101345  0.96198124  0.38820228     0.09500
N28         N  0.59107413  0.05936290  0.34042318     0.04100
N29         N  0.54096249  0.12301709  0.21051568     0.03800
C30         C  0.53155962  0.15093588  0.14091405     0.45400
N31         N  0.41823600  0.97267542  0.32375141    -0.22800
C32         C  0.54355824  0.96186299  0.17238785    -0.03700
N33         N  0.45820566  0.91551543  0.36521024    -0.43900
N34         N  0.56140369  0.15308491  0.17304513    -0.44100
C35         C  0.50706934  0.93227170  0.13939144     0.45200
N36         N  0.59958576  0.06173487  0.22077401     0.04000
N37         N  0.42183196  0.97435305  0.20278991    -0.22800
N38         N  0.52004413  0.96732394  0.33279486    -0.23300
N39         N  0.42668458  0.01163430  0.20330699     0.03700
H40         H  0.38188636  0.91806524  0.15369155     0.09600
H41         H  0.45880826  0.10866667  0.15172560     0.09600
N42         N  0.60297939  0.09832224  0.21864224    -0.23400
N43         N  0.49214930  0.10156923  0.32474932    -0.23000
N44         N  0.48592006  0.95074014  0.20816395     0.04000
C45         C  0.62093841  0.09158677  0.41504664     0.45400
C46         C  0.40169852  0.95367788  0.37217624    -0.04200
N47         N  0.49923951  0.10197143  0.20622841    -0.23000
H48         H  0.44556365  0.10799511  0.36600924     0.09600
N49         N  0.60849784  0.05622454  0.38556965    -0.44200
H50         H  0.39931241  0.92547055  0.38563699     0.09600
C51         C  0.38406799  0.97928914  0.13598011     0.45300
C52         C  0.52939114  0.95146237  0.37516323    -0.03700
Co53       Co  0.45000268  0.95955202  0.26519310     0.73800
N54         N  0.40941486  0.01656780  0.37015618    -0.43900
C55         C  0.64180797  0.09444724  0.15301960     0.45500
N56         N  0.47211430  0.92617850  0.16421518    -0.43900
Co57       Co  0.45923575  0.05611946  0.26430952     0.73900
C58         C  0.49019230  0.11731218  0.16311390    -0.04300
C59         C  0.61105673  0.11738385  0.38362937    -0.03800
N60         N  0.52763864  0.97170230  0.21389212    -0.23300
N61         N  0.54947441  0.15185224  0.36711924    -0.44100
H62         H  0.63776067  0.15265684  0.16420775     0.09500
C63         C  0.39491649  0.95124693  0.16169823    -0.04200
Cl64       Cl  0.50948571  0.03520027  0.27012395    -0.47200
C65         C  0.39713426  0.98351631  0.40453245     0.45300
H66         H  0.57658187  0.97334238  0.16657133     0.09500
N67         N  0.40497878  0.01563737  0.16473529    -0.43900
N68         N  0.49752773  0.21661364  0.48755171    -0.00800
C69         C  0.49543038  0.25117515  0.48529674     0.01800
C70         C  0.51495671  0.27640968  0.03878716    -0.21100
C71         C  0.52497663  0.25394750  0.07179661    -0.21300
C72         C  0.51605377  0.21872390  0.04255891     0.01700
H73         H  0.51774276  0.30545284  0.05002598     0.15500
H74         H  0.53520883  0.26127425  0.11372881     0.15500
N75         N  0.72087427  0.14026766  0.03420413    -0.00800
C76         C  0.76284118  0.17042335  0.02753994     0.01800
C77         C  0.78645482  0.18830065  0.49321237    -0.21100
C78         C  0.75800534  0.14968918  0.46948259    -0.21300
C79         C  0.71987774  0.13246378  0.49681387     0.01700
H80         H  0.81900785  0.21068055  0.48032179     0.15500
H81         H  0.76349184  0.13749079  0.43290083     0.15500
C82         C  0.11879293  0.53433248  0.44816520     0.45200
N83         N  0.07455348  0.52185355  0.38478186     0.04000
C84         C  0.04556107  0.65728036  0.23368192    -0.03800
H85         H  0.03128440  0.67000752  0.44438893     0.09500
C86         C  0.90285676  0.50589493  0.43477580    -0.04200
Co87       Co  0.09063651  0.60097497  0.33214358     0.74200
N88         N  0.04730983  0.63328712  0.39579893    -0.23400
Co89       Co  0.99931895  0.60189254  0.33734706     0.74100
C90         C  0.91003958  0.54248008  0.46453650     0.45300
N91         N  0.94629366  0.45407280  0.38199705     0.03700
N92         N  0.95295958  0.56460887  0.39660254     0.03800
N93         N  0.10352046  0.65430813  0.23135611    -0.44200
H94         H  0.15254762  0.60702838  0.43815532     0.09500
N95         N  0.08182391  0.63280468  0.39317089     0.04100
N96         N  0.95221236  0.57078479  0.27817782     0.03800
C97         C  0.90762166  0.55689273  0.21428190     0.45400
N98         N  0.98141476  0.45472736  0.38058893    -0.22800
C99         C  0.13164765  0.58636228  0.23387698    -0.03700
N100        N  0.08608004  0.50314791  0.41917185    -0.43900
N101        N  0.93942634  0.58862067  0.24404661    -0.44100
C102        C  0.12541720  0.54963618  0.20564906     0.45200
N103        N  0.07979681  0.63465090  0.27488829     0.04000
N104        N  0.98434743  0.46426447  0.26238648    -0.22800
N105        N  0.09807703  0.56381878  0.38872699    -0.23300
N106        N  0.94941849  0.46393648  0.26385689     0.03700
H107        H  0.00878914  0.43990961  0.20564554     0.09600
H108        H  0.87606204  0.48473898  0.22415942     0.09600
N109        N  0.04548614  0.63557907  0.27708218    -0.23400
N110        N  0.93038154  0.52258889  0.39307454    -0.23000
N111        N  0.07687187  0.52836203  0.26651357     0.04000
C112        C  0.09614686  0.67891327  0.45445706     0.45400
C113        C  0.97786830  0.42637184  0.41690354    -0.04200
N114        N  0.92977503  0.52899404  0.27393505    -0.23000
H115        H  0.87906905  0.47239718  0.44144693     0.09600
N116        N  0.11165784  0.65942120  0.42763556    -0.44200
H117        H  0.00159977  0.41964875  0.42484921     0.09600
C118        C  0.94509823  0.43258794  0.18921728     0.45300
C119        C  0.12701243  0.57483477  0.42809252    -0.03700
Co120      Co  0.02929602  0.49160080  0.32362334     0.73800
N121        N  0.91806030  0.42596614  0.41759793    -0.43900
C122        C  0.08385377  0.66908999  0.20326212     0.45500
N123        N  0.09117348  0.51458433  0.22839615    -0.43900
Co124      Co  0.93798343  0.49170399  0.32829508     0.73900
C125        C  0.90091212  0.51718142  0.23433041    -0.04300
C126        C  0.05320063  0.66124685  0.43426709    -0.03800
N127        N  0.10007370  0.57011160  0.27045800    -0.23300
N128        N  0.94125042  0.57797328  0.43849780    -0.44100
H129        H  0.02116433  0.66268010  0.22381362     0.09500
C130        C  0.98463695  0.44541622  0.21671170    -0.04200
Cl131      Cl  0.01429910  0.54654288  0.33082208    -0.47200
C132        C  0.93560115  0.40681724  0.44066773     0.45300
H133        H  0.15784643  0.61942606  0.23091195     0.09500
N134        N  0.92487941  0.44500452  0.22105499    -0.43900
N135        N  0.18174237  0.51319581  0.05371967    -0.00800
C136        C  0.21943221  0.51984274  0.03915400     0.01800
C137        C  0.24520956  0.53108849  0.08461184    -0.21100
C138        C  0.22248213  0.53190140  0.12803295    -0.21300
C139        C  0.18368436  0.52090752  0.10763476     0.01700
H140        H  0.27732088  0.53897467  0.08638074     0.15500
H141        H  0.23329034  0.54010109  0.16966018     0.15500
N142        N  0.88529029  0.31617798  0.07436863    -0.00800
C143        C  0.85547752  0.27440493  0.08463661     0.01800
C144        C  0.86159713  0.26303931  0.13574946    -0.21100
C145        C  0.89578222  0.29895697  0.15804832    -0.21300
C146        C  0.90933254  0.33082411  0.11993762     0.01700
H147        H  0.84358316  0.23188406  0.15473680     0.15500
H148        H  0.90812229  0.30204495  0.19870730     0.15500
N149        N  0.82588912  0.54546627  0.05307518    -0.00800
C150        C  0.79298449  0.54883385  0.04099826     0.01800
C151        C  0.77160004  0.54567815  0.08872889    -0.21100
C152        C  0.79255873  0.54077368  0.13093639    -0.21300
C153        C  0.82573616  0.54063375  0.10782424     0.01700
H154        H  0.74405242  0.54710562  0.09313477     0.15500
H155        H  0.78435539  0.53750268  0.17374622     0.15500
N156        N  0.14626850  0.75958303  0.06413562    -0.00800
C157        C  0.18148765  0.80002603  0.06228164     0.01800
C158        C  0.17578394  0.82581009  0.09622261    -0.21100
C159        C  0.13748273  0.80003688  0.12222628    -0.21300
C160        C  0.12083617  0.75946070  0.10344639     0.01700
H161        H  0.19813233  0.85934286  0.10420884     0.15500
H162        H  0.12565211  0.80913485  0.15580997     0.15500
C163        C  0.62802812  0.56610137  0.00385856     0.45200
N164        N  0.59958037  0.58106764  0.06714062     0.04000
C165        C  0.42170104  0.43588129  0.21902744    -0.03800
H166        H  0.40120760  0.42417008  0.00712349     0.09500
C167        C  0.42745265  0.57052495  0.00897060    -0.04200
Co168      Co  0.53350613  0.50341138  0.12878528     0.74200
N169        N  0.45376137  0.46054314  0.06229036    -0.23400
Co170      Co  0.43519492  0.48992247  0.11638862     0.74100
C171        C  0.39486596  0.52979052  0.98501635     0.45300
N172        N  0.53311031  0.63424270  0.05261249     0.03700
N173        N  0.42365533  0.51857412  0.05215230     0.03800
N174        N  0.48669240  0.44766406  0.22797105    -0.44200
H175        H  0.58732068  0.49463420  0.02573500     0.09500
N176        N  0.49065148  0.46482665  0.06745467     0.04100
N177        N  0.41905308  0.52106136  0.17151198     0.03800
C178        C  0.38992510  0.53626573  0.23423630     0.45400
N179        N  0.57048942  0.63952381  0.05643500    -0.22800
C180        C  0.59387247  0.53354973  0.23015229    -0.03700
N181        N  0.62828713  0.59835462  0.02753848    -0.43900
N182        N  0.38931144  0.50376720  0.21017824    -0.44100
C183        C  0.62828724  0.57473526  0.25171626     0.45200
N184        N  0.48552880  0.46901991  0.18618579     0.04000
N185        N  0.56583672  0.64232892  0.17583173    -0.22800
N186        N  0.58055863  0.53941218  0.07072460    -0.23300
N187        N  0.52814011  0.63631696  0.17148590     0.03700
H188        H  0.61692431  0.67740145  0.23365882     0.09600
H189        H  0.42978589  0.60713129  0.21075781     0.09600
N190        N  0.44793347  0.46288563  0.18031257    -0.23400
N191        N  0.44332534  0.56031933  0.05014809    -0.23000
N192        N  0.59688446  0.58472939  0.18586266     0.04000
C193        C  0.46063373  0.42227475  0.00001147     0.45400
C194        C  0.59500695  0.66430233  0.01474082    -0.04200
N195        N  0.43856188  0.56274985  0.16838059    -0.23000
H196        H  0.43550022  0.60219500  0.99997093     0.09600
N197        N  0.49599623  0.44228430  0.03101615    -0.44200
H198        H  0.62790279  0.67559010  0.00801543     0.09600
C199        C  0.55523954  0.67548464  0.24198814     0.45300
C200        C  0.59663460  0.52696522  0.03249769    -0.03700
Co201      Co  0.58418107  0.61285176  0.12136274     0.73800
N202        N  0.53057026  0.65450671  0.01031775    -0.43900
C203        C  0.44766434  0.42638501  0.25103557     0.45500
N204        N  0.62836868  0.60476808  0.22147857    -0.43900
Co205      Co  0.48571331  0.59901492  0.11047140     0.73900
C206        C  0.42180415  0.57508845  0.20567555    -0.04300
C207        C  0.43265620  0.43433922  0.02052766    -0.03800
N208        N  0.57659196  0.54292042  0.18944842    -0.23300
N209        N  0.39420653  0.49903355  0.01403269    -0.44100
H210        H  0.38805369  0.42257622  0.22219628     0.09500
C211        C  0.58575923  0.66734750  0.21918473    -0.04200
Cl212      Cl  0.50968744  0.55128828  0.11923563    -0.47200
C213        C  0.56831787  0.67394002  0.98414036     0.45300
H214        H  0.58690490  0.50222852  0.23884613     0.09500
N215        N  0.52057229  0.65541529  0.21026302    -0.43900
N216        N  0.46002362  0.34394433  0.39431676    -0.00800
C217        C  0.45878279  0.30754799  0.39472295     0.01800
C218        C  0.44438074  0.28702274  0.34513636    -0.21100
C219        C  0.43734076  0.31232403  0.31294356    -0.21300
C220        C  0.44776691  0.34726083  0.34405566     0.01700
H221        H  0.44025755  0.25749439  0.33299419     0.15500
H222        H  0.42868313  0.30732592  0.27034685     0.15500
N223        N  0.30030272  0.50188824  0.39863980    -0.00800
C224        C  0.26886421  0.50726771  0.41274464     0.01800
C225        C  0.25201655  0.51300758  0.36611570    -0.21100
C226        C  0.27451942  0.51220060  0.32255051    -0.21300
C227        C  0.30439805  0.50585955  0.34358003     0.01700
H228        H  0.22694769  0.51843242  0.36347819     0.15500
H229        H  0.27001746  0.51662315  0.28018576     0.15500
N230        N  0.70183822  0.55601308  0.40687808    -0.00800
C231        C  0.74058197  0.56340997  0.41763278     0.01800
C232        C  0.76497622  0.57771398  0.37037928    -0.21100
C233        C  0.74018112  0.57907781  0.33003579    -0.21300
C234        C  0.70132671  0.56547726  0.35362504     0.01700
H235        H  0.79728567  0.58656359  0.36538895     0.15500
H236        H  0.74928886  0.58809235  0.28789119     0.15500
N237        N  0.57152176  0.75443820  0.39010859    -0.00800
C238        C  0.56643479  0.78664221  0.39931170     0.01800
C239        C  0.58864338  0.81820328  0.36024116    -0.21100
C240        C  0.60692157  0.80416403  0.32544683    -0.21300
C241        C  0.59536336  0.76463829  0.34424244     0.01700
H242        H  0.59046470  0.84761986  0.35601885     0.15500
H243        H  0.62358902  0.81945434  0.28786290     0.15500
C244        C  0.33756667  0.50616314  0.31052880    -0.13700
C245        C  0.35503306  0.53201999  0.26690338    -0.28900
H246        H  0.34952823  0.48736708  0.32387856     0.15300
H247        H  0.34588175  0.55385965  0.25724383     0.15900
C248        C  0.36121711  0.52136673  0.94646116    -0.13700
C249        C  0.35697023  0.55219536  0.92792647    -0.28900
H250        H  0.33825056  0.48867459  0.93428459     0.15300
H251        H  0.31345527  0.47439373  0.46780739     0.15900
C252        C  0.59578161  0.73359203  0.30846582    -0.13700
C253        C  0.55869654  0.70096816  0.28925150    -0.28900
H254        H  0.62549982  0.74193521  0.28978829     0.15300
H255        H  0.52927501  0.69603461  0.30440715     0.15900
C256        C  0.58216014  0.70595471  0.94019970    -0.13700
C257        C  0.55765744  0.71917337  0.92314418    -0.28900
H258        H  0.61426854  0.72123617  0.92430401     0.15300
H259        H  0.52414251  0.70282371  0.44258409     0.15900
C260        C  0.66591733  0.58319294  0.28296588    -0.13700
C261        C  0.66317897  0.55803317  0.32415033    -0.28900
H262        H  0.69668867  0.61160481  0.27256283     0.15300
H263        H  0.63202086  0.53165832  0.33751991     0.15900
C264        C  0.65667940  0.57176259  0.95921138    -0.13700
C265        C  0.66256927  0.54123476  0.94517105    -0.28900
H266        H  0.67529762  0.60262555  0.93914767     0.15300
H267        H  0.64671769  0.51129693  0.96741679     0.15900
C268        C  0.45628796  0.38716537  0.32116442    -0.13700
C269        C  0.43163286  0.38768265  0.28302329    -0.28900
H270        H  0.48527691  0.41672316  0.33347117     0.15300
H271        H  0.40131494  0.35890091  0.27251623     0.15900
C272        C  0.45171275  0.39334714  0.95385894    -0.13700
C273        C  0.47492069  0.37735851  0.94234456    -0.28900
H274        H  0.42368919  0.38331245  0.92973959     0.15300
H275        H  0.49763824  0.37974172  0.46576745     0.15900
C276        C  0.75450236  0.55881927  0.47298977    -0.13700
C277        C  0.79283096  0.56548324  0.48430937    -0.28900
H278        H  0.73173292  0.54935655  0.50577939     0.15300
H279        H  0.81554112  0.57435203  0.45150362     0.15900
C280        C  0.23167800  0.51891348  0.98199505    -0.13700
C281        C  0.25776805  0.51134512  0.46984558    -0.28900
H282        H  0.20720951  0.50788235  0.95142264     0.15300
H283        H  0.27080286  0.50268926  0.50241714     0.15900
C284        C  0.87772409  0.56152390  0.18168098    -0.13700
C285        C  0.85679160  0.53645937  0.13887001    -0.28900
H286        H  0.87384337  0.58705628  0.19202655     0.15300
H287        H  0.86329060  0.51325761  0.12581831     0.15900
C288        C  0.88285376  0.54055305  0.50896010    -0.13700
C289        C  0.87372439  0.56979422  0.51498639    -0.28900
H290        H  0.86617764  0.51192621  0.53394546     0.15300
H291        H  0.88673361  0.59628664  0.48650411     0.15900
C292        C  0.92216245  0.39713086  0.15106526    -0.13700
C293        C  0.93848452  0.37547504  0.13448837    -0.28900
H294        H  0.88883381  0.38434102  0.14375572     0.15300
H295        H  0.97083932  0.38617017  0.14426505     0.15900
C296        C  0.92061382  0.38179360  0.49159718    -0.13700
C297        C  0.88019918  0.36165090  0.50914005    -0.28900
H298        H  0.94418795  0.38276514  0.51774504     0.15300
H299        H  0.86399377  0.33332707  0.00153368     0.15900
C300        C  0.15869954  0.54975602  0.17492184    -0.13700
C301        C  0.14961756  0.51914903  0.13931278    -0.28900
H302        H  0.19135619  0.57674396  0.17982388     0.15300
H303        H  0.11673742  0.49427238  0.13047662     0.15900
C304        C  0.14521678  0.52671188  0.48380044    -0.13700
C305        C  0.17596057  0.55679164  0.51561512    -0.28900
H306        H  0.13834663  0.49475955  0.48521283     0.15300
H307        H  0.18123016  0.58804410  0.51779417     0.15900
C308        C  0.10306007  0.69695448  0.15541004    -0.13700
C309        C  0.09109623  0.72223209  0.13761018    -0.28900
H310        H  0.13162007  0.70078715  0.13888863     0.15300
H311        H  0.06489435  0.72129522  0.15722400     0.15900
C312        C  0.11603617  0.70602504  0.50246259    -0.13700
C313        C  0.15384917  0.71615738  0.52151415    -0.28900
H314        H  0.09679054  0.71306393  0.52693130     0.15300
H315        H  0.17420086  0.71066287  0.49695297     0.15900
C316        C  0.78867044  0.20701228  0.06364295    -0.13700
C317        C  0.82394410  0.24335966  0.04575755    -0.28900
H318        H  0.77090370  0.22876068  0.60964585     0.15300
H319        H  0.83128927  0.24880195  0.00254065     0.15900
C320        C  0.48223661  0.26454067  0.43718045    -0.13700
C321        C  0.47133243  0.29268980  0.44160235    -0.28900
H322        H  0.48125865  0.25091150  0.39796398     0.15300
H323        H  0.47206609  0.30607165  0.48081935     0.15900
C324        C  0.69403617  0.13752695  0.07848981    -0.13700
C325        C  0.66644464  0.09995819  0.10297056    -0.28900
H326        H  0.69960671  0.16657543  0.09585203     0.15300
H327        H  0.66395173  0.07173689  0.08774372     0.15900
C328        C  0.65011740  0.10857300  0.46168372    -0.16700
C329        C  0.67937282  0.09993192  0.47042945    -0.28900
H330        H  0.65342407  0.13578632  0.48181431     0.15300
H331        H  0.67876762  0.07568656  0.44604852     0.15900
C332        C  0.53956663  0.18698646  0.10782719    -0.13700
C333        C  0.51362602  0.18186377  0.06727963    -0.28900
H334        H  0.56646394  0.21860445  0.11838774     0.15300
H335        H  0.48854152  0.15007665  0.05429138     0.15900
C336        C  0.52005892  0.17873955  0.43402880    -0.13700
C337        C  0.49154588  0.18866512  0.44332655    -0.28900
H338        H  0.54829465  0.19305230  0.45917487     0.15300
H339        H  0.46521658  0.17778528  0.41552700     0.15900
C340        C  0.25932082  0.84638773  0.05878173    -0.13700
C341        C  0.22297347  0.81421097  0.03611550    -0.28900
H342        H  0.25766214  0.85984863  0.09689423     0.15300
H343        H  0.24118760  0.78382363  0.52171495     0.15900
C344        C  0.32335133  0.93902497  0.06690201    -0.13700
C345        C  0.34570724  0.96860597  0.10531196    -0.28900
H346        H  0.29491888  0.93636067  0.05230583     0.15300
H347        H  0.33422405  0.98851135  0.11508232     0.15900
C348        C  0.40998965  0.99385962  0.46254388    -0.13700
C349        C  0.39530945  0.96906684  0.50771343    -0.28900
H350        H  0.43367979  0.02743379  0.46994308     0.15300
H351        H  0.40894486  0.98547135  0.54573324     0.15900
C352        C  0.52728268  0.81386564  0.44492848    -0.13700
C353        C  0.53990012  0.78687973  0.44391196    -0.28900
H354        H  0.53705450  0.83703351  0.41245835     0.15300
H355        H  0.53019350  0.76383902  0.47649833     0.15900
C356        C  0.47415289  0.87204014  0.07442165    -0.13700
C357        C  0.50839306  0.90830687  0.09298149    -0.28900
H358        H  0.44319074  0.85980032  0.09253357     0.15300
H359        H  0.53966655  0.91808331  0.07817223     0.15900
C360        C  0.47856892  0.88689574  0.44144519    -0.13700
C361        C  0.50759757  0.88085962  0.46210668    -0.28900
H362        H  0.44570578  0.86629080  0.45478754     0.15300
H363        H  0.53979055  0.89888605  0.44599401     0.15900
N364        N  0.50330305  0.85216573  0.99635380    -0.00800
C365        C  0.51194108  0.82208268  0.99043369     0.01800
C366        C  0.47892131  0.78241968  0.52898243    -0.21100
C367        C  0.45974233  0.79581030  0.56322823    -0.21300
C368        C  0.47043611  0.83491938  0.54395800     0.01700
H369        H  0.47751199  0.75322864  0.53338734     0.15500
H370        H  0.44237672  0.78006809  0.60026442     0.15500
N371        N  0.32944280  0.90687948  0.55042505    -0.00800
C372        C  0.30692554  0.86396643  0.54570374     0.01800
C373        C  0.31742593  0.85182523  0.99834392    -0.21100
C374        C  0.35830691  0.88491210  0.98444522    -0.21300
C375        C  0.36593665  0.92074336  0.01106153     0.01700
H376        H  0.30079087  0.81936174  0.98402160     0.15500
H377        H  0.37996974  0.88256259  0.95855413     0.15500
C378        C  0.49083616  0.91833525  0.89142951     0.45200
N379        N  0.47786431  0.94584148  0.82414664     0.04000
C380        C  0.62395439  0.12501297  0.67310067    -0.03800
H381        H  0.61610838  0.14852805  0.88838027     0.09500
C382        C  0.47485645  0.11645233  0.86423981    -0.04200
Co383      Co  0.55732141  0.01581316  0.77004507     0.74200
N384        N  0.59042561  0.09601172  0.83240280    -0.23400
Co385      Co  0.56330498  0.11047867  0.77087459     0.74100
C386        C  0.51381380  0.14995096  0.89098210     0.45300
N387        N  0.41964550  0.00763407  0.82685093     0.03700
N388        N  0.52963960  0.12135808  0.82832011     0.03800
N389        N  0.61800407  0.06219646  0.67388649    -0.44200
H390        H  0.56320352  0.96422096  0.87895890     0.09500
N391        N  0.58856969  0.06014582  0.83276654     0.04100
N392        N  0.53328144  0.12150484  0.70963076     0.03800
C393        C  0.52203101  0.14667218  0.63879668     0.45400
N394        N  0.41613077  0.97096202  0.82497946    -0.22800
C395        C  0.53840369  0.96048336  0.66691574    -0.03700
N396        N  0.45945562  0.91564220  0.86199082    -0.43900
N397        N  0.55263258  0.15004267  0.67035230    -0.44100
C398        C  0.50080009  0.92802584  0.63769227     0.45200
N399        N  0.59444506  0.06354844  0.71271293     0.04000
N400        N  0.41654743  0.97240502  0.70469608    -0.22800
N401        N  0.51969676  0.96805098  0.82666917    -0.23300
N402        N  0.41938519  0.00872555  0.70649265     0.03700
H403        H  0.37650287  0.91507876  0.65775168     0.09600
H404        H  0.44943762  0.10402305  0.65207134     0.09600
N405        N  0.59709965  0.09978141  0.71309961    -0.23400
N406        N  0.48790067  0.10042053  0.82628318    -0.23000
N407        N  0.48161490  0.94996308  0.70479580     0.04000
C408        C  0.61893147  0.09084909  0.90771463     0.45400
C409        C  0.40167473  0.95166908  0.87358330    -0.04200
N410        N  0.49143772  0.09998498  0.70698172    -0.23000
H411        H  0.44237804  0.10645689  0.87140885     0.09600
N412        N  0.60593825  0.05601039  0.87705245    -0.44200
H413        H  0.40089797  0.92403612  0.88587563     0.09600
C414        C  0.37420783  0.97390619  0.64237602     0.45300
C415        C  0.53099171  0.95286408  0.86776802    -0.03700
Co416      Co  0.44699570  0.95860426  0.76420997     0.73800
N417        N  0.40976586  0.01473641  0.87555683    -0.43900
C418        C  0.63759875  0.09975317  0.64702980     0.45500
N419        N  0.46652331  0.92260645  0.66365858    -0.43900
Co420      Co  0.45366816  0.05422366  0.76652734     0.73900
C421        C  0.48120434  0.11373270  0.66322592    -0.04300
C422        C  0.60931427  0.11759146  0.87790956    -0.03800
N423        N  0.52357649  0.97213881  0.70772944    -0.23300
N424        N  0.54631981  0.15100368  0.86655712    -0.44100
H425        H  0.63279175  0.15689869  0.66366815     0.09500
C426        C  0.38855754  0.94809462  0.66537022    -0.04200
Cl427      Cl  0.50521481  0.03465053  0.76767768    -0.47200
C428        C  0.39940147  0.98155750  0.90869235     0.45300
H429        H  0.57132322  0.97188396  0.66013553     0.09500
N430        N  0.39459780  0.01062197  0.67056792    -0.43900
N431        N  0.50171470  0.21915511  0.99224030    -0.00800
C432        C  0.50007381  0.25409716  0.99029033     0.01800
C433        C  0.50642559  0.27162332  0.53528838    -0.21100
C434        C  0.51418241  0.24811642  0.56954451    -0.21300
C435        C  0.50797513  0.21430948  0.53943020     0.01700
H436        H  0.50804787  0.30006134  0.54665259     0.15500
H437        H  0.52121018  0.25382422  0.61255017     0.15500
N438        N  0.72439480  0.15846101  0.53834794    -0.00800
C439        C  0.76484131  0.19340122  0.53468272     0.01800
C440        C  0.77898100  0.16059711  0.98391606    -0.21100
C441        C  0.74546219  0.12363919  0.96205469    -0.21300
C442        C  0.71005158  0.11231904  0.99281218     0.01700
H443        H  0.81140312  0.17861484  0.96899950     0.15500
H444        H  0.74608878  0.10901893  0.92455914     0.15500
C445        C  0.11582110  0.53863790  0.96911386     0.45200
N446        N  0.07459496  0.51971760  0.90047751     0.04000
C447        C  0.03108255  0.64009876  0.74216899    -0.03800
H448        H  0.00828753  0.64806429  0.95570469     0.09500
C449        C  0.89270751  0.48706384  0.94426621    -0.04200
Co450      Co  0.08395784  0.59483697  0.84439199     0.74200
N451        N  0.03313487  0.61952464  0.90652332    -0.23400
Co452      Co  0.98718648  0.58523540  0.84644010     0.74100
C453        C  0.89531128  0.52292141  0.97009487     0.45300
N454        N  0.94649682  0.44168469  0.89903127     0.03700
N455        N  0.94107761  0.54637144  0.90531609     0.03800
N456        N  0.09232725  0.64402291  0.74173757    -0.44200
H457        H  0.14236376  0.60939883  0.95584825     0.09500
N458        N  0.07042191  0.62431295  0.90527125     0.04100
N459        N  0.94177103  0.55019509  0.78574488     0.03800
C460        C  0.89761057  0.53109883  0.71898635     0.45400
N461        N  0.98375858  0.44655569  0.89708560    -0.22800
C462        C  0.12770841  0.58110361  0.74430239    -0.03700
N463        N  0.08695490  0.50463979  0.93938864    -0.43900
N464        N  0.92841165  0.56500067  0.74745139    -0.44100
C465        C  0.12353025  0.54398596  0.71847174     0.45200
N466        N  0.07011839  0.62530053  0.78653138     0.04000
N467        N  0.98509250  0.45272640  0.77820461    -0.22800
N468        N  0.09438709  0.56154965  0.90249911    -0.23300
N469        N  0.94828942  0.44874435  0.77994648     0.03700
H470        H  0.01816878  0.44498591  0.71282091     0.09600
H471        H  0.86840119  0.46024278  0.73700701     0.09600
N472        N  0.03362375  0.62197027  0.78750763    -0.23400
N473        N  0.92180994  0.50455908  0.90436479    -0.23000
N474        N  0.07648050  0.52318182  0.78195269     0.04000
C475        C  0.07573471  0.66460418  0.97051863     0.45400
C476        C  0.98416833  0.42058299  0.93365490    -0.04200
N477        N  0.92091305  0.50829954  0.78533106    -0.23000
H478        H  0.87015764  0.45332318  0.95113070     0.09600
N479        N  0.09714387  0.65145502  0.94259517    -0.44200
H480        H  0.01023527  0.41709850  0.94053561     0.09600
C481        C  0.95134539  0.42943164  0.69856065     0.45300
C482        C  0.12084744  0.57628944  0.94496527    -0.03700
Co483      Co  0.03011163  0.48490989  0.83947112     0.73800
N484        N  0.92046174  0.41262517  0.93585500    -0.43900
C485        C  0.06956909  0.65384845  0.71077305     0.45500
N486        N  0.09181672  0.50962456  0.74519645    -0.43900
Co487      Co  0.93342253  0.47499353  0.84254951     0.73900
C488        C  0.89185228  0.49347518  0.74541886    -0.04300
C489        C  0.03342726  0.64348061  0.94681632    -0.03800
N490        N  0.09711352  0.56499353  0.78299258    -0.23300
N491        N  0.92572353  0.55873604  0.94387183    -0.44100
H492        H  0.00299232  0.63825106  0.72871763     0.09500
C493        C  0.98940041  0.44063614  0.72872024    -0.04200
Cl494      Cl  0.00864673  0.53501676  0.84342098    -0.47200
C495        C  0.94228918  0.39772118  0.95876243     0.45300
H496        H  0.15225376  0.61449820  0.73845962     0.09500
N497        N  0.92750637  0.43515304  0.73351744    -0.43900
N498        N  0.19882174  0.54670776  0.55219515    -0.00800
C499        C  0.22396001  0.53278083  0.53887489     0.01800
C500        C  0.23940774  0.52603078  0.58610034    -0.21100
C501        C  0.22275721  0.53561131  0.62923781    -0.21300
C502        C  0.19767448  0.54810322  0.60730711     0.01700
H503        H  0.26039652  0.51527297  0.58952034     0.15500
H504        H  0.22827302  0.53325408  0.67189079     0.15500
N505        N  0.86946490  0.34838737  0.56528855    -0.00800
C506        C  0.83844449  0.30931121  0.58407155     0.01800
C507        C  0.83623036  0.31016896  0.64030378    -0.21100
C508        C  0.86693873  0.35109793  0.65619307    -0.21300
C509        C  0.88722180  0.37406223  0.60914686     0.01700
H510        H  0.81559075  0.28389221  0.66740902     0.15500
H511        H  0.87283947  0.36190899  0.69774399     0.15500
N512        N  0.84154217  0.56278798  0.55326662    -0.00800
C513        C  0.80531799  0.56045223  0.54060276     0.01800
C514        C  0.78084597  0.55054147  0.58744123    -0.21100
C515        C  0.80252211  0.54636190  0.62932960    -0.21300
C516        C  0.83979119  0.55383783  0.60741370     0.01700
H517        H  0.75039797  0.54648145  0.59147521     0.15500
H518        H  0.79228369  0.53926732  0.67141879     0.15500
N519        N  0.16494050  0.72850187  0.57754639    -0.00800
C520        C  0.20130865  0.76331859  0.59637299     0.01800
C521        C  0.19891075  0.76471119  0.65258624    -0.21100
C522        C  0.16002893  0.72916084  0.66835181    -0.21300
C523        C  0.13985592  0.70696406  0.62121605     0.01700
H524        H  0.22306166  0.78826749  0.67963127     0.15500
H525        H  0.14895727  0.72086838  0.70986231     0.15500
C526        C  0.62819022  0.56514135  0.50049804     0.45200
N527        N  0.59881241  0.57893628  0.56387099     0.04000
C528        C  0.42061246  0.43176434  0.71401064    -0.03800
H529        H  0.40100730  0.42301886  0.50120974     0.09500
C530        C  0.43057644  0.57096392  0.50504241    -0.04200
Co531      Co  0.53259012  0.50042284  0.62404243     0.74200
N532        N  0.45348857  0.45879061  0.55650915    -0.23400
Co533      Co  0.43425753  0.48694102  0.61086784     0.74100
C534        C  0.39801851  0.53150511  0.47941961     0.45300
N535        N  0.53260172  0.63247615  0.55189483     0.03700
N536        N  0.42320016  0.51700694  0.54756796     0.03800
N537        N  0.48587612  0.44432746  0.72321380    -0.44200
H538        H  0.58807503  0.49345796  0.52103178     0.09500
N539        N  0.49015053  0.46266123  0.56201355     0.04100
N540        N  0.41733948  0.51674584  0.66563961     0.03800
C541        C  0.38555019  0.52884580  0.72729386     0.45400
N542        N  0.56991817  0.63762310  0.55494147    -0.22800
C543        C  0.59130775  0.52936784  0.72660618    -0.03700
N544        N  0.62771337  0.59684649  0.52456608    -0.43900
N545        N  0.38551312  0.49765763  0.70099976    -0.44100
C546        C  0.62508551  0.57028191  0.74933407     0.45200
N547        N  0.48430918  0.46512897  0.68092050     0.04000
N548        N  0.56484584  0.63903745  0.67479391    -0.22800
N549        N  0.58012366  0.53728252  0.56671382    -0.23300
N550        N  0.52699221  0.63269930  0.67105566     0.03700
H551        H  0.61634314  0.67464432  0.73197538     0.09600
H552        H  0.42738926  0.60109325  0.71122827     0.09600
N553        N  0.44656798  0.45868735  0.67482703    -0.23400
N554        N  0.44385554  0.55890524  0.54714960    -0.23000
N555        N  0.59526802  0.58109609  0.68262030     0.04000
C556        C  0.46005310  0.42055990  0.49444077     0.45400
C557        C  0.59397795  0.66213716  0.51275827    -0.04200
N558        N  0.43746536  0.55857241  0.66596327    -0.23000
H559        H  0.43987481  0.60311958  0.49644389     0.09600
N560        N  0.49533361  0.44003364  0.52558842    -0.44200
H561        H  0.62668845  0.67309903  0.50515700     0.09600
C562        C  0.55428841  0.67194505  0.74165422     0.45300
C563        C  0.59692187  0.52556937  0.52844833    -0.03700
Co564      Co  0.58323416  0.61010457  0.61906132     0.73800
N565        N  0.52957556  0.65243261  0.50967380    -0.43900
C566        C  0.44704594  0.42308687  0.74681274     0.45500
N567        N  0.62590340  0.60073916  0.71931850    -0.43900
Co568      Co  0.48512299  0.59625858  0.60908431     0.73900
C569        C  0.41963097  0.56934444  0.70393880    -0.04300
C570        C  0.43241768  0.43300953  0.51455638    -0.03800
N571        N  0.57497471  0.53925872  0.68537867    -0.23300
N572        N  0.39451236  0.49904804  0.50811302    -0.44100
H573        H  0.38705723  0.41871020  0.71787579     0.09500
C574        C  0.58487979  0.66407876  0.71816035    -0.04200
Cl575      Cl  0.50883249  0.54842388  0.61578362    -0.47200
C576        C  0.56693880  0.67165835  0.48270650     0.45300
H577        H  0.58406171  0.49792667  0.73519577     0.09500
N578        N  0.51945861  0.65165877  0.71013208    -0.43900
N579        N  0.46263635  0.34688401  0.89883135    -0.00800
C580        C  0.46187481  0.31060237  0.90065173     0.01800
C581        C  0.44575542  0.28838131  0.85238828    -0.21100
C582        C  0.43737229  0.31233422  0.81955630    -0.21300
C583        C  0.44860001  0.34838187  0.84870026     0.01700
H584        H  0.44142592  0.25859311  0.84121746     0.15500
H585        H  0.42723391  0.30561871  0.77754498     0.15500
N586        N  0.32206932  0.54196714  0.89322068    -0.00800
C587        C  0.28336713  0.53196699  0.90932114     0.01800
C588        C  0.25745548  0.52173312  0.86416030    -0.21100
C589        C  0.28125373  0.52528793  0.81935008    -0.21300
C590        C  0.32083057  0.53780115  0.83857733     0.01700
H591        H  0.22492533  0.51267786  0.86313592     0.15500
H592        H  0.27091080  0.51979589  0.77738381     0.15500
N593        N  0.69477000  0.55020721  0.90606542    -0.00800
C594        C  0.73257694  0.55601428  0.91761468     0.01800
C595        C  0.75711026  0.56832254  0.87053560    -0.21100
C596        C  0.73320136  0.57010453  0.82934684    -0.21300
C597        C  0.69486619  0.55874242  0.85249757     0.01700
H598        H  0.78889665  0.57558497  0.86619365     0.15500
H599        H  0.74247067  0.57787020  0.78701898     0.15500
N600        N  0.57453749  0.75584506  0.88798252    -0.00800
C601        C  0.57231381  0.78984718  0.89730028     0.01800
C602        C  0.59440750  0.82024870  0.85693952    -0.21100
C603        C  0.60982703  0.80372745  0.82132834    -0.21300
C604        C  0.59667653  0.76390468  0.84094989     0.01700
H605        H  0.59819988  0.85064081  0.85273786     0.15500
H606        H  0.62607007  0.81790636  0.78314457     0.15500
C607        C  0.35672375  0.54587114  0.80449625    -0.13700
C608        C  0.35023943  0.52140376  0.76138876    -0.28900
H609        H  0.38886981  0.57078714  0.81636707     0.15300
H610        H  0.31856258  0.49387742  0.75264049     0.15900
C611        C  0.36943361  0.52849850  0.43641394    -0.13700
C612        C  0.32761178  0.49845682  0.43588760    -0.28900
H613        H  0.38222043  0.55499033  0.40797536     0.15300
H614        H  0.37875880  0.58500452  0.94036184     0.15900
C615        C  0.59587268  0.73150086  0.80639700    -0.13700
C616        C  0.55845548  0.69875714  0.78797117    -0.28900
H617        H  0.62527361  0.73891242  0.78774114     0.15300
H618        H  0.52935510  0.69459098  0.80302618     0.15900
C619        C  0.58027349  0.70407318  0.43946598    -0.13700
C620        C  0.55531067  0.71718568  0.42398801    -0.28900
H621        H  0.61232577  0.71984564  0.42322069     0.15300
H622        H  0.52651588  0.70565146  0.94147325     0.15900
C623        C  0.66185269  0.57812949  0.78145586    -0.13700
C624        C  0.65766248  0.55240377  0.82251581    -0.28900
H625        H  0.69304737  0.60621564  0.77172226     0.15300
H626        H  0.62608920  0.52642276  0.83524621     0.15900
C627        C  0.65728901  0.57185131  0.45591377    -0.13700
C628        C  0.66927126  0.54513288  0.44653523    -0.28900
H629        H  0.67184764  0.60123243  0.43256101     0.15300
H630        H  0.65805679  0.51766859  0.47282327     0.15900
C631        C  0.45568363  0.38728188  0.82322969    -0.13700
C632        C  0.43185943  0.38565826  0.78180376    -0.28900
H633        H  0.48343045  0.41778147  0.83567145     0.15300
H634        H  0.40263870  0.35584547  0.77096184     0.15900
C635        C  0.45052106  0.39132749  0.44884342    -0.13700
C636        C  0.47228790  0.37367604  0.43862308    -0.28900
H637        H  0.42321474  0.38257526  0.42391406     0.15300
H638        H  0.50124853  0.38488887  0.96854464     0.15900
C639        C  0.74530224  0.55151656  0.97341678    -0.13700
C640        C  0.78151913  0.55410901  0.98468153    -0.28900
H641        H  0.72336702  0.54515924  0.00629527     0.15300
H642        H  0.80298128  0.55923782  0.95169571     0.15900
C643        C  0.23389765  0.52675924  0.48205842    -0.13700
C644        C  0.27130712  0.53187626  0.96690381    -0.28900
H645        H  0.22165590  0.53617606  0.44937808     0.15300
H646        H  0.29591710  0.54300778  0.99734407     0.15900
C647        C  0.86486353  0.53112588  0.68571982    -0.13700
C648        C  0.87371442  0.55434016  0.63954948    -0.28900
H649        H  0.83197034  0.50926712  0.69817170     0.15300
H650        H  0.90622603  0.57337473  0.62453829     0.15900
C651        C  0.86464010  0.51978232  0.00988577    -0.13700
C652        C  0.85745694  0.55041619  0.01540270    -0.28900
H653        H  0.84555938  0.49041071  0.03302699     0.15300
H654        H  0.87356702  0.57822057  0.98891456     0.15900
C655        C  0.95370986  0.44196591  0.64157541    -0.13700
C656        C  0.92313949  0.41968153  0.60463684    -0.28900
H657        H  0.98088574  0.47321883  0.62977924     0.15300
H658        H  0.92803182  0.43527160  0.56558152     0.15900
C659        C  0.93093532  0.37049248  0.00782842    -0.13700
C660        C  0.89133485  0.34052014  0.02529099    -0.28900
H661        H  0.95758537  0.37387611  0.02941644     0.15300
H662        H  0.85577547  0.35836443  0.48241131     0.15900
C663        C  0.15708881  0.54259031  0.69002624    -0.13700
C664        C  0.17006845  0.55742433  0.63899625    -0.28900
H665        H  0.16671970  0.52331000  0.70887550     0.15300
H666        H  0.15711738  0.57325942  0.61862484     0.15900
C667        C  0.14294566  0.53885924  0.01178419    -0.13700
C668        C  0.14974495  0.50789308  0.01688117    -0.28900
H669        H  0.16086108  0.56710786  0.03688708     0.15300
H670        H  0.13505374  0.48125832  0.98884508     0.15900
C671        C  0.06629592  0.64540088  0.65237957    -0.13700
C672        C  0.09801478  0.66519852  0.61592836    -0.28900
H673        H  0.03629451  0.61768937  0.63852114     0.15300
H674        H  0.09055065  0.64986692  0.57655652     0.15900
C675        C  0.09277244  0.69845269  0.01216997    -0.13700
C676        C  0.13404351  0.72518080  0.02626573    -0.28900
H677        H  0.06944356  0.70302750  0.03028682     0.15300
H678        H  0.15834484  0.72326662  0.00570534     0.15900
C679        C  0.78344334  0.23208415  0.56884723    -0.13700
C680        C  0.81516842  0.27058770  0.54987540    -0.28900
H681        H  0.77969973  0.20307210  0.10636804     0.15300
H682        H  0.82558642  0.27373590  0.50788244     0.15900
C683        C  0.48438221  0.26645398  0.94351110    -0.13700
C684        C  0.47692590  0.29737180  0.94714099    -0.28900
H685        H  0.47887995  0.24966825  0.90552755     0.15300
H686        H  0.48238909  0.31406682  0.98513949     0.15900
C687        C  0.69348072  0.14997838  0.58017959    -0.13700
C688        C  0.66718805  0.11045485  0.60074151    -0.28900
H689        H  0.69410071  0.17642003  0.59839143     0.15300
H690        H  0.66899400  0.08478521  0.58479215     0.15900
C691        C  0.64877917  0.10583537  0.95333277    -0.16700
C692        C  0.66756604  0.08623765  0.96860187    -0.28900
H693        H  0.66063776  0.13750408  0.96867102     0.15300
H694        H  0.65821088  0.05621839  0.94997176     0.15900
C695        C  0.52955299  0.18242682  0.60596099    -0.13700
C696        C  0.50497006  0.17719780  0.56382778    -0.28900
H697        H  0.55551105  0.21419174  0.61777899     0.15300
H698        H  0.48100559  0.14551116  0.54922238     0.15900
C699        C  0.51953017  0.17815603  0.93669344    -0.13700
C700        C  0.49237898  0.18943237  0.94866152    -0.28900
H701        H  0.54885060  0.19241032  0.95959857     0.15300
H702        H  0.46491310  0.17865394  0.92301806     0.15900
C703        C  0.26838168  0.83381433  0.57853625    -0.13700
C704        C  0.23852894  0.79405175  0.56189421    -0.28900
H705        H  0.26423219  0.84516433  0.61700636     0.15300
H706        H  0.22373980  0.79912539  0.99899482     0.15900
C707        C  0.31339520  0.92925389  0.57642609    -0.13700
C708        C  0.33354340  0.95926355  0.61500081    -0.28900
H709        H  0.28231325  0.92124151  0.56383262     0.15300
H710        H  0.31815926  0.97498721  0.62777529     0.15900
C711        C  0.41729818  0.99100241  0.96443417    -0.13700
C712        C  0.40501971  0.96409888  0.00718002    -0.28900
H713        H  0.44406218  0.02354392  0.97120096     0.15300
H714        H  0.42267004  0.97724877  0.04461118     0.15900
C715        C  0.53714988  0.82071803  0.94477998    -0.13700
C716        C  0.54880237  0.79293475  0.94360371    -0.28900
H717        H  0.54581327  0.84274799  0.91113385     0.15300
H718        H  0.53992189  0.77070900  0.97698186     0.15900
C719        C  0.46587606  0.86461129  0.57748175    -0.13700
C720        C  0.50078459  0.90135628  0.59386665    -0.28900
H721        H  0.43537204  0.85311969  0.59649386     0.15300
H722        H  0.53158459  0.91052284  0.57793785     0.15900
C723        C  0.48330493  0.88937744  0.93718241    -0.13700
C724        C  0.51382263  0.88556287  0.95779474    -0.28900
H725        H  0.45089731  0.86832677  0.95199167     0.15300
H726        H  0.54561837  0.90410479  0.94044463     0.15900
loop_ 
_geom_bond_atom_site_label_1 
_geom_bond_atom_site_label_2 
_geom_bond_distance 
_geom_bond_site_symmetry_2 
_ccdc_geom_bond_type 
N1            C2   1.356       .  A
N1          C368   1.356       .  A
N1          C361   1.442       .  S
C2          C352   1.489       .  S
C2          C366   1.388       .  A
C3            C4   1.377       .  A
C3          C365   1.388   1_554  A
C3            H6   1.081       .  S
C4            C5   1.379       .  A
C4            H7   1.082       .  S
C5          N364   1.358   1_554  A
C5          C356   1.478       .  S
N8            C9   1.355       .  A
N8          C375   1.353       .  A
N8          C344   1.440       .  S
C9          C340   1.482       .  S
C9          C373   1.382   1_554  A
C10          C11   1.381       .  A
C10         C372   1.383       .  A
C10          H13   1.082       .  S
C11          C12   1.383       .  A
C11          H14   1.078       .  S
C12         N371   1.359       .  A
C12         C349   1.481       .  S
C15          N33   1.349       .  A
C15         C360   1.477       .  S
C15          C52   1.460       .  S
N16          N33   1.325       .  A
N16          N38   1.320       .  A
N16         Co53   2.102       .  S
C17          N42   1.351       .  A
C17          H62   1.081       .  S
C17          C55   1.469       .  S
H18          C59   1.081       .  S
C19          N43   1.345       .  A
C19          H48   1.081       .  S
C19          C23   1.459       .  S
Co20         N38   2.079   1_545  S
Co20         N28   2.107       .  S
Co20         N60   2.095   1_545  S
Co20         N36   2.081       .  S
Co20        Cl64   2.452       .  S
N21          C59   1.334       .  A
N21          N28   1.320       .  A
N21         Co22   2.072       .  S
Co22         N25   2.094       .  S
Co22         N42   2.107       .  S
Co22         N29   2.074       .  S
Co22        Cl64   2.456       .  S
C23          N61   1.351       .  A
C23         C336   1.478       .  S
N24          N31   1.318   1_545  A
N24          N54   1.324       .  A
N24         Co57   2.102       .  S
N25          N43   1.318       .  A
N25          N61   1.326       .  A
N26          C55   1.346       .  A
N26          N36   1.323       .  A
H27          C52   1.081       .  S
N28          N49   1.331       .  A
N29          N47   1.321       .  A
N29          N34   1.322       .  A
C30          N34   1.347       .  A
C30         C332   1.465       .  S
C30          C58   1.463       .  S
N31          C46   1.346       .  A
N31         Co53   2.104       .  S
C32          N60   1.338       .  A
C32          H66   1.081       .  S
C32          C35   1.452       .  S
C35          N56   1.355       .  A
C35         C357   1.476       .  S
N36          N42   1.318       .  A
N37          C63   1.356       .  A
N37          N39   1.318   1_565  A
N37         Co53   2.116       .  S
N38          C52   1.344       .  A
N39          N67   1.319       .  A
N39         Co57   2.075       .  S
H40          C63   1.081       .  S
H41          C58   1.082       .  S
N43         Co57   2.085       .  S
N44          N56   1.330       .  A
N44          N60   1.324       .  A
N44         Co53   2.104       .  S
C45          N49   1.357       .  A
C45         C328   1.472       .  S
C45          C59   1.448       .  S
C46          H50   1.071       .  S
C46          C65   1.469       .  S
N47          C58   1.341       .  A
N47         Co57   2.093       .  S
C51          N67   1.346   1_565  A
C51         C345   1.483       .  S
C51          C63   1.477       .  S
Co53        Cl64   2.469   1_565  S
N54          C65   1.355   1_545  A
C55         C325   1.483       .  S
Co57        Cl64   2.443       .  S
C65         C348   1.488       .  S
N68          C69   1.355       .  A
N68         C435   1.352       .  A
N68         C337   1.446       .  S
C69         C320   1.478       .  S
C69         C433   1.388       .  A
C70          C71   1.372       .  A
C70         C432   1.388   1_554  A
C70          H73   1.081       .  S
C71          C72   1.382       .  A
C71          H74   1.082       .  S
C72         N431   1.355   1_554  A
C72         C333   1.475       .  S
N75          C76   1.354       .  A
N75         C442   1.358   1_554  A
N75         C324   1.450       .  S
C76         C316   1.470       .  S
C76         C440   1.383   1_554  A
C77          C78   1.374       .  A
C77         C439   1.385       .  A
C77          H80   1.082       .  S
C78          C79   1.380       .  A
C78          H81   1.082       .  S
C79         N438   1.362       .  A
C79         C329   1.481       .  S
C82         N100   1.347       .  A
C82         C304   1.477       .  S
C82         C119   1.467       .  S
N83         N100   1.323       .  A
N83         N105   1.322       .  A
N83        Co120   2.084       .  S
C84         N109   1.343       .  A
C84         H129   1.081       .  S
C84         C122   1.461       .  S
H85         C126   1.081       .  S
C86         N110   1.338       .  A
C86         H115   1.081       .  S
C86          C90   1.453       .  S
Co87        N105   2.103       .  S
Co87         N95   2.065       .  S
Co87        N127   2.064       .  S
Co87        N103   2.086       .  S
Co87       Cl131   2.443       .  S
N88         C126   1.343       .  A
N88          N95   1.321       .  A
N88         Co89   2.097   1_455  S
Co89         N92   2.098       .  S
Co89        N109   2.089   1_655  S
Co89         N96   2.089       .  S
Co89       Cl131   2.464   1_655  S
C90         N128   1.353       .  A
C90         C288   1.472       .  S
N91          N98   1.319       .  A
N91         N121   1.327       .  A
N91        Co124   2.088       .  S
N92         N110   1.324       .  A
N92         N128   1.327       .  A
N93         C122   1.346       .  A
N93         N103   1.322       .  A
H94         C119   1.082       .  S
N95         N116   1.323       .  A
N96         N114   1.318       .  A
N96         N101   1.326       .  A
C97         N101   1.351       .  A
C97         C284   1.478       .  S
C97         C125   1.461       .  S
N98         C113   1.341       .  A
N98        Co120   2.085   1_655  S
C99         N127   1.337       .  A
C99         H133   1.082       .  S
C99         C102   1.452       .  S
C102        N123   1.352       .  A
C102        C300   1.466       .  S
N103        N109   1.322       .  A
N104        C130   1.334       .  A
N104        N106   1.318       .  A
N104       Co120   2.072   1_655  S
N105        C119   1.345       .  A
N106        N134   1.323       .  A
N106       Co124   2.076       .  S
H107        C130   1.081   1_455  S
H108        C125   1.082       .  S
N110       Co124   2.089       .  S
N111        N123   1.326       .  A
N111        N127   1.315       .  A
N111       Co120   2.081       .  S
C112        N116   1.345       .  A
C112        C312   1.469       .  S
C112        C126   1.462       .  S
C113        H117   1.081   1_655  S
C113        C132   1.458       .  S
N114        C125   1.344       .  A
N114       Co124   2.087       .  S
C118        N134   1.349       .  A
C118        C292   1.464       .  S
C118        C130   1.461       .  S
Co120      Cl131   2.450       .  S
N121        C132   1.352       .  A
C122        C308   1.468       .  S
Co124      Cl131   2.446   1_655  S
C132        C296   1.474       .  S
N135        C139   1.350       .  A
N135        C136   1.353       .  A
N135        C668   1.438       .  S
C136        C280   1.484   1_554  S
C136        C137   1.388       .  A
C137        C138   1.380       .  A
C137        H140   1.081       .  S
C138        C139   1.382       .  A
C138        H141   1.082       .  S
C139        C301   1.475       .  S
N142        C146   1.355       .  A
N142        C143   1.357       .  A
N142        C660   1.453       .  S
C143        C317   1.472       .  S
C143        C144   1.387       .  A
C144        C145   1.367       .  A
C144        H147   1.082       .  S
C145        C146   1.376       .  A
C145        H148   1.083       .  S
C146        C293   1.458       .  S
N149        C153   1.356       .  A
N149        C150   1.357       .  A
N149        C652   1.437       .  S
C150        C640   1.497   1_554  S
C150        C151   1.390       .  A
C151        C152   1.382       .  A
C151        H154   1.081       .  S
C152        C153   1.381       .  A
C152        H155   1.082       .  S
C153        C285   1.485       .  S
N156        C160   1.361       .  A
N156        C157   1.359       .  A
N156        C676   1.453       .  S
C157        C341   1.492       .  S
C157        C158   1.390       .  A
C158        C159   1.371       .  A
C158        H161   1.081       .  S
C159        C160   1.376       .  A
C159        H162   1.082       .  S
C160        C309   1.475       .  S
C163        N181   1.349       .  A
C163        C264   1.470   1_554  S
C163        C200   1.458       .  S
N164        N181   1.324       .  A
N164        N186   1.321       .  A
N164       Co201   2.086       .  S
C165        N190   1.339       .  A
C165        H210   1.082       .  S
C165        C203   1.454       .  S
H166        C207   1.082       .  S
C167        N191   1.340       .  A
C167        H196   1.081   1_554  S
C167        C171   1.460   1_554  S
Co168       N186   2.082       .  S
Co168       N176   2.102       .  S
Co168       N208   2.103       .  S
Co168       N184   2.079       .  S
Co168      Cl212   2.446       .  S
N169        C207   1.342       .  A
N169        N176   1.322       .  A
N169       Co170   2.091       .  S
Co170       N173   2.093       .  S
Co170       N190   2.072       .  S
Co170       N177   2.099       .  S
Co170      Cl212   2.461       .  S
C171        N209   1.352   1_556  A
C171        C248   1.477       .  S
N172        N179   1.320       .  A
N172        N202   1.325       .  A
N172       Co205   2.080       .  S
N173        N191   1.319       .  A
N173        N209   1.326       .  A
N174        C203   1.350       .  A
N174        N184   1.321       .  A
H175        C200   1.081       .  S
N176        N197   1.329       .  A
N177        N195   1.319       .  A
N177        N182   1.330       .  A
C178        N182   1.355       .  A
C178        C245   1.475       .  S
C178        C206   1.456       .  S
N179        C194   1.345       .  A
N179       Co201   2.101       .  S
C180        N208   1.348       .  A
C180        H214   1.082       .  S
C180        C183   1.467       .  S
C183        N204   1.355       .  A
C183        C260   1.492       .  S
N184        N190   1.319       .  A
N185        C211   1.346       .  A
N185        N187   1.321       .  A
N185       Co201   2.094       .  S
N186        C200   1.340       .  A
N187        N215   1.321       .  A
N187       Co205   2.078       .  S
H188        C211   1.081       .  S
H189        C206   1.082       .  S
N191       Co205   2.079       .  S
N192        N204   1.328       .  A
N192        N208   1.321       .  A
N192       Co201   2.108       .  S
C193        N197   1.352       .  A
C193        C272   1.481   1_554  S
C193        C207   1.459       .  S
C194        H198   1.082       .  S
C194        C213   1.462   1_554  S
N195        C206   1.338       .  A
N195       Co205   2.083       .  S
C199        N215   1.344       .  A
C199        C253   1.470       .  S
C199        C211   1.464       .  S
Co201      Cl212   2.463       .  S
N202        C213   1.349   1_554  A
C203        C269   1.459       .  S
Co205      Cl212   2.444       .  S
C213        C256   1.479       .  S
N216        C220   1.350       .  A
N216        C217   1.352       .  A
N216        C636   1.446       .  S
C217        C321   1.472       .  S
C217        C218   1.386       .  A
C218        C219   1.377       .  A
C218        H221   1.082       .  S
C219        C220   1.383       .  A
C219        H222   1.082       .  S
C220        C268   1.467       .  S
N223        C227   1.359       .  A
N223        C224   1.361       .  A
N223        C612   1.443       .  S
C224        C281   1.496       .  S
C224        C225   1.387       .  A
C225        C226   1.377       .  A
C225        H228   1.081       .  S
C226        C227   1.384       .  A
C226        H229   1.082       .  S
C227        C244   1.490       .  S
N230        C234   1.358       .  A
N230        C231   1.360       .  A
N230        C628   1.437       .  S
C231        C276   1.504       .  S
C231        C232   1.388       .  A
C232        C233   1.389       .  A
C232        H235   1.081       .  S
C233        C234   1.385       .  A
C233        H236   1.082       .  S
C234        C261   1.500       .  S
N237        C241   1.355       .  A
N237        C238   1.356       .  A
N237        C620   1.443       .  S
C238        C353   1.488       .  S
C238        C239   1.387       .  A
C239        C240   1.379       .  A
C239        H242   1.081       .  S
C240        C241   1.381       .  A
C240        H243   1.082       .  S
C241        C252   1.476       .  S
C244        C245   1.346       .  D
C244        H246   1.086       .  S
C245        H247   1.086       .  S
C248        C249   1.343       .  D
C248        H250   1.086       .  S
C249        N586   1.437       .  S
C249        H614   1.085       .  S
H251        C612   1.086       .  S
C252        C253   1.339       .  D
C252        H254   1.086       .  S
C253        H255   1.088       .  S
C256        C257   1.345       .  D
C256        H258   1.086       .  S
C257        N600   1.442       .  S
C257        H622   1.086       .  S
H259        C620   1.086       .  S
C260        C261   1.351       .  D
C260        H262   1.086       .  S
C261        H263   1.086       .  S
C264        C265   1.339       .  D
C264        H266   1.086       .  S
C265        N593   1.434       .  S
C265        H267   1.086       .  S
C268        C269   1.333       .  D
C268        H270   1.087       .  S
C269        H271   1.087       .  S
C272        C273   1.347       .  D
C272        H274   1.086       .  S
C273        N579   1.449       .  S
C273        H638   1.086       .  S
H275        C636   1.086       .  S
C276        C277   1.359       .  D
C276        H278   1.082       .  S
C277        C513   1.508       .  S
C277        H279   1.084       .  S
C280        C644   1.345       .  D
C280        H282   1.083       .  S
C281        C643   1.356       .  D
C281        H283   1.083       .  S
C284        C285   1.343       .  D
C284        H286   1.086       .  S
C285        H287   1.085       .  S
C288        C289   1.340       .  D
C288        H290   1.086       .  S
C289        N512   1.440       .  S
C289        H291   1.086       .  S
C292        C293   1.337       .  D
C292        H294   1.088       .  S
C293        H295   1.084       .  S
C296        C297   1.344       .  D
C296        H298   1.086       .  S
C297        N505   1.443       .  S
C297        H662   1.086       .  S
H299        C660   1.086       .  S
C300        C301   1.337       .  D
C300        H302   1.087       .  S
C301        H303   1.087       .  S
C304        C305   1.340       .  D
C304        H306   1.086       .  S
C305        N498   1.441       .  S
C305        H307   1.086       .  S
C308        C309   1.340       .  D
C308        H310   1.086       .  S
C309        H311   1.086       .  S
C312        C313   1.347       .  D
C312        H314   1.086       .  S
C313        N519   1.441       .  S
C313        H315   1.086       .  S
C316        C317   1.347       .  D
C316        H681   1.086       .  S
C317        H319   1.086       .  S
H318        C679   1.084       .  S
C320        C321   1.346       .  D
C320        H322   1.085       .  S
C321        H323   1.082       .  S
C324        C325   1.345       .  D
C324        H326   1.086       .  S
C325        H327   1.086       .  S
C328        C329   1.338       .  D
C328        H330   1.086       .  S
C329        H331   1.087       .  S
C332        C333   1.338       .  D
C332        H334   1.087       .  S
C333        H335   1.087       .  S
C336        C337   1.347       .  D
C336        H338   1.086       .  S
C337        H339   1.086       .  S
C340        C341   1.352       .  D
C340        H342   1.085       .  S
C341        H706   1.086   1_554  S
H343        C704   1.086       .  S
C344        C345   1.346       .  D
C344        H346   1.087       .  S
C345        H347   1.087       .  S
C348        C349   1.352       .  D
C348        H350   1.088   1_565  S
C349        H351   1.083       .  S
C352        C353   1.349       .  D
C352        H354   1.083       .  S
C353        H355   1.083       .  S
C356        C357   1.340       .  D
C356        H358   1.086       .  S
C357        H359   1.087       .  S
C360        C361   1.344       .  D
C360        H362   1.086       .  S
C361        H363   1.086       .  S
N364        C365   1.357       .  A
N364        C724   1.443       .  S
C365        C715   1.491       .  S
C366        C367   1.380       .  A
C366        H369   1.081       .  S
C367        C368   1.380       .  A
C367        H370   1.082       .  S
C368        C719   1.481       .  S
N371        C372   1.354       .  A
N371        C707   1.439       .  S
C372        C703   1.488       .  S
C373        C374   1.384       .  A
C373        H376   1.082       .  S
C374        C375   1.385   1_556  A
C374        H377   1.080       .  S
C375        C712   1.477       .  S
C378        N396   1.349       .  A
C378        C723   1.479       .  S
C378        C415   1.461       .  S
N379        N396   1.326       .  A
N379        N401   1.319       .  A
N379       Co416   2.100       .  S
C380        N405   1.348       .  A
C380        H425   1.081       .  S
C380        C418   1.465       .  S
H381        C422   1.081       .  S
C382        N406   1.348       .  A
C382        H411   1.081       .  S
C382        C386   1.463       .  S
Co383       N401   2.082   1_545  S
Co383       N391   2.097       .  S
Co383       N423   2.092   1_545  S
Co383       N399   2.089       .  S
Co383      Cl427   2.448       .  S
N384        C422   1.336       .  A
N384        N391   1.320       .  A
N384       Co385   2.068       .  S
Co385       N388   2.090       .  S
Co385       N405   2.095       .  S
Co385       N392   2.066       .  S
Co385      Cl427   2.458       .  S
C386        N424   1.350       .  A
C386        C699   1.482       .  S
N387        N394   1.319   1_545  A
N387        N417   1.325       .  A
N387       Co420   2.098       .  S
N388        N406   1.318       .  A
N388        N424   1.326       .  A
N389        C418   1.349       .  A
N389        N399   1.325       .  A
H390        C415   1.081       .  S
N391        N412   1.326       .  A
N392        N410   1.321       .  A
N392        N397   1.319       .  A
C393        N397   1.343       .  A
C393        C695   1.458       .  S
C393        C421   1.465       .  S
N394        C409   1.343       .  A
N394       Co416   2.102       .  S
C395        N423   1.338       .  A
C395        H429   1.081       .  S
C395        C398   1.454       .  S
C398        N419   1.355       .  A
C398        C720   1.477       .  S
N399        N405   1.318       .  A
N400        C426   1.352       .  A
N400        N402   1.319   1_565  A
N400       Co416   2.103       .  S
N401        C415   1.344       .  A
N402        N430   1.322       .  A
N402       Co420   2.087       .  S
H403        C426   1.082       .  S
H404        C421   1.082       .  S
N406       Co420   2.095       .  S
N407        N419   1.330       .  A
N407        N423   1.324       .  A
N407       Co416   2.105       .  S
C408        N412   1.353       .  A
C408        C691   1.467       .  S
C408        C422   1.450       .  S
C409        H413   1.072       .  S
C409        C428   1.464       .  S
N410        C421   1.342       .  A
N410       Co420   2.096       .  S
C414        N430   1.348   1_565  A
C414        C708   1.480       .  S
C414        C426   1.471       .  S
Co416      Cl427   2.465   1_565  S
N417        C428   1.355   1_545  A
C418        C688   1.482       .  S
Co420      Cl427   2.447       .  S
C428        C711   1.483       .  S
N431        C432   1.359       .  A
N431        C700   1.449       .  S
C432        C683   1.485       .  S
C433        C434   1.370       .  A
C433        H436   1.081       .  S
C434        C435   1.382       .  A
C434        H437   1.082       .  S
C435        C696   1.470       .  S
N438        C439   1.358       .  A
N438        C687   1.450       .  S
C439        C679   1.484       .  S
C440        C441   1.373       .  A
C440        H443   1.082       .  S
C441        C442   1.381       .  A
C441        H444   1.082       .  S
C442        C692   1.469       .  S
C445        N463   1.351       .  A
C445        C667   1.467   1_556  S
C445        C482   1.453       .  S
N446        N463   1.326       .  A
N446        N468   1.322       .  A
N446       Co483   2.091       .  S
C447        N472   1.338       .  A
C447        H492   1.081       .  S
C447        C485   1.462       .  S
H448        C489   1.082       .  S
C449        N473   1.338       .  A
C449        H478   1.082       .  S
C449        C453   1.453       .  S
Co450       N468   2.081       .  S
Co450       N458   2.094       .  S
Co450       N490   2.105       .  S
Co450       N466   2.073       .  S
Co450      Cl494   2.463       .  S
N451        C489   1.340       .  A
N451        N458   1.322       .  A
N451       Co452   2.097   1_455  S
Co452       N455   2.101       .  S
Co452       N472   2.090   1_655  S
Co452       N459   2.103       .  S
Co452      Cl494   2.452   1_655  S
C453        N491   1.352       .  A
C453        C651   1.470   1_556  S
N454        N461   1.320       .  A
N454        N484   1.334       .  A
N454       Co487   2.110       .  S
N455        N473   1.322       .  A
N455        N491   1.326       .  A
N456        C485   1.350       .  A
N456        N466   1.321       .  A
H457        C482   1.081       .  S
N458        N479   1.331       .  A
N459        N477   1.319       .  A
N459        N464   1.331       .  A
C460        N464   1.355       .  A
C460        C647   1.489       .  S
C460        C488   1.464       .  S
N461        C476   1.336       .  A
N461       Co483   2.079   1_655  S
C462        N490   1.349       .  A
C462        H496   1.082       .  S
C462        C465   1.469       .  S
C465        N486   1.347       .  A
C465        C663   1.477       .  S
N466        N472   1.318       .  A
N467        C493   1.341       .  A
N467        N469   1.318       .  A
N467       Co483   2.089   1_655  S
N468        C482   1.338       .  A
N469        N497   1.320       .  A
N469       Co487   2.073       .  S
H470        C493   1.080   1_455  S
H471        C488   1.082       .  S
N473       Co487   2.075       .  S
N474        N486   1.322       .  A
N474        N490   1.318       .  A
N474       Co483   2.077       .  S
C475        N479   1.352       .  A
C475        C675   1.481   1_556  S
C475        C489   1.459       .  S
C476        H480   1.082   1_655  S
C476        C495   1.452       .  S
N477        C488   1.345       .  A
N477       Co487   2.110       .  S
C481        N497   1.348       .  A
C481        C655   1.463       .  S
C481        C493   1.462       .  S
Co483      Cl494   2.448       .  S
N484        C495   1.357       .  A
C485        C671   1.460       .  S
Co487      Cl494   2.463   1_655  S
C495        C659   1.481   1_556  S
N498        C502   1.356       .  A
N498        C499   1.362       .  A
C499        C643   1.495       .  S
C499        C500   1.387       .  A
C500        C501   1.381       .  A
C500        H503   1.081       .  S
C501        C502   1.387       .  A
C501        H504   1.082       .  S
C502        C664   1.495       .  S
N505        C509   1.355       .  A
N505        C506   1.355       .  A
C506        C680   1.483       .  S
C506        C507   1.385       .  A
C507        C508   1.379       .  A
C507        H510   1.081       .  S
C508        C509   1.387       .  A
C508        H511   1.077       .  S
C509        C656   1.491       .  S
N512        C516   1.363       .  A
N512        C513   1.364       .  A
C513        C514   1.388       .  A
C514        C515   1.381       .  A
C514        H517   1.081       .  S
C515        C516   1.384       .  A
C515        H518   1.082       .  S
C516        C648   1.502       .  S
N519        C523   1.357       .  A
N519        C520   1.353       .  A
C520        C704   1.489       .  S
C520        C521   1.386       .  A
C521        C522   1.383       .  A
C521        H524   1.082       .  S
C522        C523   1.387       .  A
C522        H525   1.078       .  S
C523        C672   1.495       .  S
C526        N544   1.348       .  A
C526        C627   1.469       .  S
C526        C563   1.459       .  S
N527        N544   1.324       .  A
N527        N549   1.321       .  A
N527       Co564   2.088       .  S
C528        N553   1.343       .  A
C528        H573   1.082       .  S
C528        C566   1.460       .  S
H529        C570   1.082       .  S
C530        N554   1.337       .  A
C530        H559   1.082       .  S
C530        C534   1.450       .  S
Co531       N549   2.084       .  S
Co531       N539   2.100       .  S
Co531       N571   2.098       .  S
Co531       N547   2.081       .  S
Co531      Cl575   2.446       .  S
N532        C570   1.339       .  A
N532        N539   1.322       .  A
N532       Co533   2.078       .  S
Co533       N536   2.101       .  S
Co533       N553   2.093       .  S
Co533       N540   2.075       .  S
Co533      Cl575   2.467       .  S
C534        N572   1.355       .  A
C534        C611   1.474       .  S
N535        N542   1.319       .  A
N535        N565   1.324       .  A
N535       Co568   2.077       .  S
N536        N554   1.320       .  A
N536        N572   1.330       .  A
N537        C566   1.350       .  A
N537        N547   1.323       .  A
H538        C563   1.082       .  S
N539        N560   1.328       .  A
N540        N558   1.319       .  A
N540        N545   1.323       .  A
C541        N545   1.346       .  A
C541        C608   1.464       .  S
C541        C569   1.459       .  S
N542        C557   1.346       .  A
N542       Co564   2.098       .  S
C543        N571   1.345       .  A
C543        H577   1.082       .  S
C543        C546   1.465       .  S
C546        N567   1.352       .  A
C546        C623   1.483       .  S
N547        N553   1.320       .  A
N548        C574   1.348       .  A
N548        N550   1.320       .  A
N548       Co564   2.101       .  S
N549        C563   1.341       .  A
N550        N578   1.322       .  A
N550       Co568   2.079       .  S
H551        C574   1.081       .  S
H552        C569   1.082       .  S
N554       Co568   2.078       .  S
N555        N567   1.327       .  A
N555        N571   1.320       .  A
N555       Co564   2.099       .  S
C556        N560   1.352       .  A
C556        C635   1.473       .  S
C556        C570   1.454       .  S
C557        H561   1.081       .  S
C557        C576   1.464       .  S
N558        C569   1.341       .  A
N558       Co568   2.085       .  S
C562        N578   1.346       .  A
C562        C616   1.475       .  S
C562        C574   1.466       .  S
Co564      Cl575   2.463       .  S
N565        C576   1.348       .  A
C566        C632   1.469       .  S
Co568      Cl575   2.436       .  S
C576        C619   1.478       .  S
N579        C583   1.356       .  A
N579        C580   1.358       .  A
C580        C684   1.483       .  S
C580        C581   1.386       .  A
C581        C582   1.376       .  A
C581        H584   1.081       .  S
C582        C583   1.383       .  A
C582        H585   1.082       .  S
C583        C631   1.478       .  S
N586        C590   1.349       .  A
N586        C587   1.353       .  A
C587        C644   1.484       .  S
C587        C588   1.389       .  A
C588        C589   1.379       .  A
C588        H591   1.081       .  S
C589        C590   1.383       .  A
C589        H592   1.082       .  S
C590        C607   1.474       .  S
N593        C597   1.353       .  A
N593        C594   1.355       .  A
C594        C639   1.495       .  S
C594        C595   1.388       .  A
C595        C596   1.387       .  A
C595        H598   1.081       .  S
C596        C597   1.385       .  A
C596        H599   1.082       .  S
C597        C624   1.490       .  S
N600        C604   1.356       .  A
N600        C601   1.356       .  A
C601        C716   1.487       .  S
C601        C602   1.386       .  A
C602        C603   1.381       .  A
C602        H605   1.081       .  S
C603        C604   1.382       .  A
C603        H606   1.082       .  S
C604        C615   1.480       .  S
C607        C608   1.338       .  D
C607        H609   1.087       .  S
C608        H610   1.087       .  S
C611        C612   1.340       .  D
C611        H613   1.086       .  S
C615        C616   1.341       .  D
C615        H617   1.086       .  S
C616        H618   1.087       .  S
C619        C620   1.347       .  D
C619        H621   1.086       .  S
C623        C624   1.346       .  D
C623        H625   1.086       .  S
C624        H626   1.086       .  S
C627        C628   1.340       .  D
C627        H629   1.086       .  S
C628        H630   1.086       .  S
C631        C632   1.341       .  D
C631        H633   1.087       .  S
C632        H634   1.086       .  S
C635        C636   1.344       .  D
C635        H637   1.086       .  S
C639        C640   1.351       .  D
C639        H641   1.083   1_556  S
C640        H642   1.084       .  S
C643        H645   1.083       .  S
C644        H646   1.084       .  S
C647        C648   1.354       .  D
C647        H649   1.086       .  S
C648        H650   1.086       .  S
C651        C652   1.338       .  D
C651        H653   1.086       .  S
C652        H654   1.086   1_554  S
C655        C656   1.341       .  D
C655        H657   1.087       .  S
C656        H658   1.084       .  S
C659        C660   1.348       .  D
C659        H661   1.085       .  S
C663        C664   1.346       .  D
C663        H665   1.085       .  S
C664        H666   1.086       .  S
C667        C668   1.339       .  D
C667        H669   1.086       .  S
C668        H670   1.086   1_554  S
C671        C672   1.339       .  D
C671        H673   1.088       .  S
C672        H674   1.083       .  S
C675        C676   1.353       .  D
C675        H677   1.086       .  S
C676        H678   1.087       .  S
C679        C680   1.351       .  D
C680        H682   1.085       .  S
C683        C684   1.352       .  D
C683        H685   1.083       .  S
C684        H686   1.082       .  S
C687        C688   1.347       .  D
C687        H689   1.086       .  S
C688        H690   1.086       .  S
C691        C692   1.338       .  D
C691        H693   1.088       .  S
C692        H694   1.086       .  S
C695        C696   1.334       .  D
C695        H697   1.087       .  S
C696        H698   1.087       .  S
C699        C700   1.349       .  D
C699        H701   1.086       .  S
C700        H702   1.086       .  S
C703        C704   1.348       .  D
C703        H705   1.086       .  S
C707        C708   1.346       .  D
C707        H709   1.087       .  S
C708        H710   1.087       .  S
C711        C712   1.348   1_556  D
C711        H713   1.087   1_565  S
C712        H714   1.084       .  S
C715        C716   1.350       .  D
C715        H717   1.084       .  S
C716        H718   1.082       .  S
C719        C720   1.342       .  D
C719        H721   1.086       .  S
C720        H722   1.087       .  S
C723        C724   1.344       .  D
C723        H725   1.086       .  S
C724        H726   1.086       .  S
