geometry optimzed in LAMMPS
_audit_creation_date              2020-11-30 
_audit_creation_method            'lammps2cif' 
_symmetry_space_group_name_H-M    'P1' 
_symmetry_Int_Tables_number       1 
_symmetry_cell_setting            triclinic 
loop_ 
_symmetry_equiv_pos_as_xyz 
  x,y,z 
_cell_length_a                    37.1021210469962 
_cell_length_b                    37.09435243700477 
_cell_length_c                    37.159553031737815 
_cell_angle_alpha                 90.03767425400977 
_cell_angle_beta                  90.00073413833378 
_cell_angle_gamma                 90.01112407481318 
loop_ 
_atom_site_label 
_atom_site_type_symbol 
_atom_site_fract_x 
_atom_site_fract_y 
_atom_site_fract_z 
_atom_site_charge 
C1          C  0.99927207  0.23919981  0.76310471     0.01390
C2          C  0.99906549  0.26450533  0.73631486     0.01390
C3          C  0.26186914  0.00021460  0.73790267     0.01390
C4          C  0.23595017  0.00099024  0.76413421     0.01390
C5          C  0.99814510  0.73733904  0.26312860     0.01390
C6          C  0.99709268  0.76416839  0.23785866     0.01390
C7          C  0.73639484  0.00270819  0.26377651     0.01390
C8          C  0.76168984  0.00266871  0.23694318     0.01390
C9          C  0.73578927  0.26460683  0.00077406     0.01390
C10         C  0.76248244  0.23914872  0.99944813     0.01390
C11         C  0.26463670  0.73708302  0.00065052     0.01390
C12         C  0.23741916  0.76213284  0.00050259     0.01390
C13         C  0.76462864  0.76549848  0.99969683     0.01390
C14         C  0.73729699  0.74059399  0.00010001     0.01390
C15         C  0.73809234  0.00069919  0.73665339     0.01390
C16         C  0.76314573  0.00142504  0.76372815     0.01390
C17         C  0.99946099  0.76404475  0.76265390     0.01390
C18         C  0.99871387  0.73806220  0.73644339     0.01390
Fe19       Fe  0.12179261  0.80806061  0.86778783     1.65780
Fe20       Fe  0.19091513  0.86673298  0.87901581     1.73250
Fe21       Fe  0.13154868  0.87839365  0.81089848     1.54420
O22         O  0.10941164  0.83270962  0.78396575    -0.80850
O23         O  0.16486372  0.91329158  0.88876477    -0.79150
O24         O  0.12207496  0.78422449  0.81750078    -0.83350
O25         O  0.07416870  0.82990355  0.85314610    -0.78210
O26         O  0.18129793  0.87931155  0.78610053    -0.79980
O27         O  0.16794299  0.85135303  0.92587065    -0.82730
C28         C  0.06676675  0.86297848  0.85463549     0.98040
C29         C  0.10278913  0.80002920  0.79339154     1.05480
O30         O  0.15042070  0.84888954  0.85018866    -1.11710
O31         O  0.21532468  0.81667858  0.87838616    -0.74140
O32         O  0.16761267  0.78206431  0.89067888    -0.77630
O33         O  0.08512443  0.88606775  0.83820303    -0.78320
C34         C  0.19997824  0.79225125  0.89759501     0.96940
O35         O  0.11241207  0.83475969  0.91414354    -0.76280
O36         O  0.21681047  0.89024358  0.83349204    -0.81470
C37         C  0.14679525  0.93219589  0.86749262     0.99560
C38         C  0.20579797  0.89823023  0.80166495     1.05480
O39         O  0.14547301  0.92580313  0.83418388    -0.77110
C40         C  0.13455762  0.85295547  0.93201180     1.03780
Fe41       Fe  0.80152757  0.86481747  0.87190620     1.65780
Fe42       Fe  0.86551310  0.87169896  0.80536239     1.73250
Fe43       Fe  0.86732877  0.79928798  0.86351971     1.54420
O44         O  0.86877722  0.81728060  0.91349241    -0.80850
O45         O  0.88146085  0.82570848  0.77632740    -0.79150
O46         O  0.82406814  0.85638666  0.92073436    -0.83350
O47         O  0.77617233  0.81525214  0.87519351    -0.78210
O48         O  0.91727202  0.82158909  0.86162270    -0.79980
O49         O  0.81631300  0.87925022  0.78038892    -0.82730
C50         C  0.79244474  0.78992450  0.89190775     0.98040
C51         C  0.85230009  0.84069729  0.93124632     1.05480
O52         O  0.84351285  0.84413142  0.84565774    -1.11710
O53         O  0.85983773  0.92007249  0.82966491    -0.74140
O54         O  0.82541974  0.91268126  0.87770880    -0.77630
O55         O  0.81804786  0.77359416  0.87542755    -0.78320
C56         C  0.84841171  0.92990450  0.86002400     0.96940
O57         O  0.77614847  0.88312027  0.82441210    -0.76280
O58         O  0.91293907  0.87253414  0.83058812    -0.81470
C59         C  0.89429343  0.79689065  0.79005919     0.99560
C60         C  0.92838733  0.85262463  0.85311988     1.05480
O61         O  0.87492273  0.77903047  0.81222741    -0.77110
C62         C  0.79158198  0.89687395  0.79676095     1.03780
Fe63       Fe  0.12938577  0.87151525  0.19186109     1.65780
Fe64       Fe  0.13090101  0.80341240  0.12878743     1.73250
Fe65       Fe  0.19883995  0.86745539  0.13011101     1.54410
O66         O  0.17865017  0.91735737  0.12907133    -0.80850
O67         O  0.17975948  0.77650299  0.12197944    -0.79150
O68         O  0.13273656  0.91952699  0.16711163    -0.83350
O69         O  0.17732339  0.88190035  0.21936135    -0.78210
O70         O  0.17790301  0.86647407  0.08018903    -0.79980
O71         O  0.11600524  0.78016102  0.17795778    -0.82730
C72         C  0.20436028  0.89674037  0.20403587     0.98040
C73         C  0.15087762  0.93213024  0.14147507     1.05480
O74         O  0.15416927  0.84623216  0.15161555    -1.11710
O75         O  0.08231838  0.82748758  0.12568535    -0.74140
O76         O  0.08151989  0.87057993  0.16695115    -0.77630
O77         O  0.22175307  0.87878394  0.18022928    -0.78320
C78         C  0.06845459  0.85492221  0.13994148     0.96940
O79         O  0.11611405  0.82383821  0.21865620    -0.76280
O80         O  0.13584959  0.82396208  0.07933729    -0.81470
C81         C  0.20601801  0.79177465  0.10567926     0.99560
C82         C  0.15059029  0.85166823  0.06664143     1.05480
O83         O  0.22273929  0.81720255  0.12181386    -0.77110
C84         C  0.10032163  0.79708529  0.20362027     1.03780
Fe85       Fe  0.86530254  0.87740525  0.19592955     1.65780
Fe86       Fe  0.87451589  0.80600788  0.13931908     1.73250
Fe87       Fe  0.80908222  0.86815321  0.12453865     1.54420
O88         O  0.78141118  0.89119647  0.16908688    -0.80850
O89         O  0.88583678  0.82909739  0.09217939    -0.79150
O90         O  0.81444076  0.87997365  0.21817384    -0.83350
O91         O  0.85443938  0.92540546  0.17250807    -0.78210
O92         O  0.78287444  0.81913353  0.12274404    -0.79980
O93         O  0.92240818  0.82732897  0.15421624    -0.82730
C94         C  0.85432830  0.93238766  0.13931886     0.98040
C95         C  0.79113606  0.89922213  0.20128922     1.05480
O96         O  0.84741138  0.84865625  0.15509563    -1.11710
O97         O  0.87174863  0.78405629  0.19005948    -0.74140
O98         O  0.88444698  0.83147705  0.22436495    -0.77630
O99         O  0.83714125  0.91380627  0.11704122    -0.78320
C100        C  0.89189878  0.79951154  0.21356813     0.96940
O101        O  0.91312158  0.88343872  0.17086137    -0.76280
O102        O  0.82850136  0.78083390  0.11565097    -0.81470
C103        C  0.86619014  0.84716932  0.07163421     0.99560
C104        C  0.79845127  0.79407484  0.10463824     1.05480
O105        O  0.83354713  0.85414108  0.07810069    -0.77110
C106        C  0.93030821  0.86032642  0.15316593     1.03780
Fe107      Fe  0.87716230  0.19410478  0.86659778     1.65780
Fe108      Fe  0.80675981  0.13702835  0.87695618     1.73250
Fe109      Fe  0.86638202  0.12416179  0.80904438     1.54410
O110        O  0.88924531  0.16964381  0.78246395    -0.80850
O111        O  0.83143531  0.08997469  0.88651544    -0.79150
O112        O  0.87713629  0.21786303  0.81652247    -0.83350
O113        O  0.92468190  0.17100834  0.85258796    -0.78210
O114        O  0.81665690  0.12408755  0.78429462    -0.79980
O115        O  0.82942285  0.15138229  0.92445256    -0.82730
C116        C  0.93120822  0.13766477  0.85314292     0.98040
C117        C  0.89639482  0.20202992  0.79252009     1.05480
O118        O  0.84806111  0.15375526  0.84871285    -1.11710
O119        O  0.78363758  0.18755307  0.87604780    -0.74140
O120        O  0.83174923  0.22123175  0.88892276    -0.77630
O121        O  0.91267306  0.11543208  0.83581288    -0.78320
C122        C  0.79928115  0.21138563  0.89570892     0.96940
O123        O  0.88529669  0.16781594  0.91322496    -0.76280
O124        O  0.78052942  0.11418319  0.83125748    -0.81470
C125        C  0.84883577  0.07015179  0.86549025     0.99560
C126        C  0.79198333  0.10541636  0.79980948     1.05480
O127        O  0.85208320  0.07684001  0.83233790    -0.77110
C128        C  0.86266955  0.15069666  0.93151426     1.03780
Fe129      Fe  0.86782629  0.13501869  0.19822767     1.65780
Fe130      Fe  0.86706160  0.19831493  0.13022148     1.73250
Fe131      Fe  0.80225436  0.13170802  0.13237008     1.54410
O132        O  0.82406014  0.08247620  0.13735686    -0.80850
O133        O  0.81785823  0.22318338  0.12079700    -0.79150
O134        O  0.86972132  0.08583492  0.17571916    -0.83350
O135        O  0.81869741  0.12264166  0.22305360    -0.78210
O136        O  0.82645362  0.12921783  0.08405093    -0.79980
O137        O  0.87888678  0.22491483  0.17846769    -0.82730
C138        C  0.79232557  0.10762759  0.20678943     0.98040
C139        C  0.85304147  0.07075305  0.15043092     1.05480
O140        O  0.84449530  0.15623740  0.15474855    -1.11710
O141        O  0.91579106  0.17476412  0.13024571    -0.74140
O142        O  0.91762453  0.13814703  0.17733135    -0.77630
O143        O  0.77649551  0.12474220  0.18144394    -0.78320
C144        C  0.93022158  0.15000166  0.14823665     0.96940
O145        O  0.87532285  0.18501534  0.22212889    -0.76280
O146        O  0.86441160  0.17530128  0.08138558    -0.81470
C147        C  0.79300692  0.20684432  0.10337843     0.99560
C148        C  0.85182663  0.14617546  0.06941424     1.05480
O149        O  0.77695219  0.18007615  0.11794038    -0.77110
C150        C  0.89324574  0.20931863  0.20553274     1.03780
Fe151      Fe  0.12114830  0.13337508  0.81068366     1.65780
Fe152      Fe  0.19171382  0.12331693  0.86774551     1.73250
Fe153      Fe  0.13198650  0.19119272  0.88024112     1.54410
O154        O  0.10786941  0.21728875  0.83509060    -0.80850
O155        O  0.16661932  0.11338182  0.91459425    -0.79150
O156        O  0.12009563  0.18357034  0.78665027    -0.83350
O157        O  0.07359333  0.14673701  0.83425724    -0.78210
O158        O  0.18146071  0.21654934  0.87952277    -0.79980
O159        O  0.16952863  0.07550801  0.85327007    -0.82730
C160        C  0.06718319  0.14680186  0.86762103     0.98040
C161        C  0.10108559  0.20782339  0.80248218     1.05480
O162        O  0.15035927  0.15149582  0.85075086    -1.11710
O163        O  0.21488307  0.12424745  0.81726926    -0.74140
O164        O  0.16679321  0.11160713  0.78339632    -0.77630
O165        O  0.08611099  0.16403488  0.88956026    -0.78320
C166        C  0.19922295  0.10465273  0.79335105     0.96940
O167        O  0.11360900  0.08648339  0.83683877    -0.76280
O168        O  0.21736260  0.16952008  0.89067781    -0.81470
C169        C  0.14870422  0.13471898  0.93358410     0.99560
C170        C  0.20635103  0.20151009  0.89830213     1.05480
O171        O  0.14750334  0.16813003  0.92726978    -0.77110
C172        C  0.13631283  0.06834467  0.85400355     1.03780
Fe173      Fe  0.19508421  0.13979425  0.12401507     1.65780
Fe174      Fe  0.12298753  0.19556354  0.13307164     1.73250
Fe175      Fe  0.13423171  0.12586534  0.19087334     1.54420
O176        O  0.14923207  0.07886391  0.16769315    -0.80850
O177        O  0.12107203  0.21918967  0.18323765    -0.79150
O178        O  0.17229574  0.09186911  0.11445426    -0.83350
O179        O  0.22145096  0.11851484  0.17033535    -0.78210
O180        O  0.08833807  0.11642554  0.16391110    -0.79980
O181        O  0.16809710  0.22411422  0.11224161    -0.82730
C182        C  0.20839923  0.10812010  0.20060426     0.98040
C183        C  0.15389458  0.07220757  0.13472916     1.05480
O184        O  0.15258243  0.15562833  0.15135070    -1.11710
O185        O  0.11653191  0.16939379  0.08613744    -0.74140
O186        O  0.17262476  0.15277895  0.07600828    -0.77630
O187        O  0.18361947  0.12670124  0.21599151    -0.78320
C188        C  0.13943758  0.15170654  0.06872361     0.96940
O189        O  0.21639848  0.19097675  0.12503040    -0.76280
O190        O  0.07558540  0.17137415  0.14534690    -0.81470
C191        C  0.10209047  0.20276456  0.20703327     0.99560
C192        C  0.06903551  0.13802332  0.14666887     1.05480
O193        O  0.11035951  0.17078474  0.21738315    -0.77110
C194        C  0.20030442  0.21399696  0.10487630     1.03780
C195        C  0.49981864  0.23641480  0.26441430     0.01390
C196        C  0.49906430  0.26296830  0.23885112     0.01390
C197        C  0.23629974  0.26214079  0.50057844     0.01390
C198        C  0.26252295  0.23618998  0.50053350     0.01390
C199        C  0.26140312  0.49977463  0.23959487     0.01390
C200        C  0.23551783  0.50023053  0.26590320     0.01390
C201        C  0.23688638  0.23986757  0.00082264     0.01390
C202        C  0.26365156  0.26527881  0.00077611     0.01390
C203        C  0.23450785  0.00240379  0.23327418     0.01390
C204        C  0.26005874  0.00173235  0.25988580     0.01390
C205        C  0.49956824  0.74194714  0.76015023     0.01390
C206        C  0.49979970  0.76783777  0.73379973     0.01390
C207        C  0.23366886  0.73784445  0.49815164     0.01390
C208        C  0.25853001  0.76525243  0.49798480     0.01390
C209        C  0.49973243  0.73849166  0.23971452     0.01390
C210        C  0.49952987  0.76474819  0.26577674     0.01390
Fe211      Fe  0.30068654  0.87788824  0.36159924     1.65780
Fe212      Fe  0.36002579  0.80902534  0.37398023     1.73250
Fe213      Fe  0.37292777  0.86901666  0.30583163     1.54420
O214        O  0.32751044  0.88943090  0.27722056    -0.80850
O215        O  0.40744579  0.83247077  0.38279956    -0.79150
O216        O  0.27899234  0.87743022  0.31055462    -0.83350
O217        O  0.32294661  0.92591234  0.34846473    -0.78210
O218        O  0.37624831  0.81892838  0.28169767    -0.79980
O219        O  0.34693523  0.83290513  0.42139073    -0.82730
C220        C  0.35604792  0.93325308  0.34986093     0.98040
C221        C  0.29532257  0.89721436  0.28730718     1.05480
O222        O  0.34295273  0.85004128  0.34525962    -1.11710
O223        O  0.30970649  0.78554060  0.37415520    -0.74140
O224        O  0.27363776  0.83226226  0.38369890    -0.77630
O225        O  0.37901570  0.91591022  0.33226566    -0.78320
C226        C  0.28568245  0.80132577  0.39333874     0.96940
O227        O  0.32414373  0.88674073  0.40924792    -0.76280
O228        O  0.38256179  0.78194714  0.32850142    -0.81470
C229        C  0.42785088  0.84990602  0.36248321     0.99560
C230        C  0.39423320  0.79450793  0.29840129     1.05480
O231        O  0.42031036  0.85774752  0.33032966    -0.77110
C232        C  0.34232359  0.86589825  0.42856943     1.03780
Fe233      Fe  0.37480105  0.19155461  0.36826374     1.65780
Fe234      Fe  0.30335538  0.13471681  0.37706662     1.73250
Fe235      Fe  0.36420559  0.12188292  0.31038970     1.54420
O236        O  0.38917622  0.16663509  0.28445659    -0.80850
O237        O  0.32750957  0.08735629  0.38722064    -0.79150
O238        O  0.37770087  0.21523515  0.31810845    -0.83350
O239        O  0.42248791  0.16739120  0.35692470    -0.78210
O240        O  0.31517122  0.12301711  0.28432369    -0.79980
O241        O  0.32492765  0.14844864  0.42513541    -0.82730
C242        C  0.42940040  0.13413378  0.35473808     0.98040
C243        C  0.39699977  0.19884959  0.29451600     1.05480
O244        O  0.34552904  0.15149548  0.34977060    -1.11710
O245        O  0.28122400  0.18565239  0.37605668    -0.74140
O246        O  0.32906725  0.21991434  0.38804793    -0.77630
O247        O  0.40972065  0.11244903  0.33796031    -0.78320
C248        C  0.29718952  0.20910419  0.39597383     0.96940
O249        O  0.38083955  0.16561216  0.41533845    -0.76280
O250        O  0.27809149  0.11244074  0.33042344    -0.81470
C251        C  0.34607516  0.06850940  0.36633220     0.99560
C252        C  0.28990906  0.10437271  0.29889698     1.05480
O253        O  0.34800355  0.07491164  0.33305543    -0.77110
C254        C  0.35803586  0.14771755  0.43263087     1.03780
Fe255      Fe  0.63791853  0.80233042  0.36967181     1.65780
Fe256      Fe  0.70032383  0.87117785  0.36401577     1.73250
Fe257      Fe  0.62945754  0.86751324  0.30420700     1.54420
O258        O  0.62285964  0.81819373  0.27880146    -0.80850
O259        O  0.67789404  0.92048132  0.35980694    -0.79810
O260        O  0.62166648  0.77685328  0.32144761    -0.83350
O261        O  0.58877826  0.82306669  0.37422243    -0.78210
O262        O  0.67607065  0.88421035  0.27626838    -0.79980
O263        O  0.67891151  0.87334591  0.41314479    -0.82730
C264        C  0.57091812  0.84600150  0.35716971     0.98040
C265        C  0.60598229  0.79297682  0.29522564     1.05480
O266        O  0.65703988  0.84579031  0.34464871    -1.11710
O267        O  0.72766239  0.82345735  0.37807712    -0.74140
O268        O  0.68844889  0.77930584  0.37410837    -0.77630
O269        O  0.58128161  0.86048235  0.32833537    -0.78320
C270        C  0.71250544  0.79597379  0.39226918     0.96940
O271        O  0.64426141  0.82483147  0.41887343    -0.76280
O272        O  0.72219666  0.87793852  0.31331583    -0.81470
C273        C  0.64694607  0.93137017  0.35112815     0.99560
C274        C  0.70479014  0.89700903  0.29046073     1.05480
O275        O  0.62687703  0.91523070  0.32924990    -0.77110
C276        C  0.65601047  0.85486186  0.42974348     1.03780
Fe277      Fe  0.63561320  0.13063606  0.30350405     1.65780
Fe278      Fe  0.69383141  0.13730690  0.37467589     1.73250
Fe279      Fe  0.62620868  0.19924583  0.36470412     1.54420
O280        O  0.62470316  0.22277800  0.31454800    -0.80850
O281        O  0.67016394  0.14700176  0.42275155    -0.79150
O282        O  0.61911042  0.17778378  0.27609198    -0.83350
O283        O  0.58683395  0.12561603  0.32553123    -0.78210
O284        O  0.67297358  0.22545514  0.38480122    -0.79980
O285        O  0.66852996  0.08995081  0.37955038    -0.82730
C286        C  0.56866356  0.14522041  0.34616179     0.98040
C287        C  0.60624254  0.20638089  0.29044144     1.05480
O288        O  0.65339132  0.15719403  0.34622759    -1.11710
O289        O  0.72202618  0.11789636  0.32901492    -0.74140
O290        O  0.68658667  0.12687596  0.28184456    -0.77630
O291        O  0.57738963  0.17705017  0.35437757    -0.78320
C292        C  0.70957767  0.10737766  0.29862772     0.96940
O293        O  0.64316888  0.08164931  0.32619687    -0.76280
O294        O  0.71833525  0.18704039  0.37840074    -0.81470
C295        C  0.63814637  0.15503125  0.43080580     0.99560
C296        C  0.70214097  0.21133812  0.39684416     1.05480
O297        O  0.61881811  0.17542865  0.41218553    -0.77110
C298        C  0.64908466  0.07230970  0.35830635     1.03780
Fe299      Fe  0.63592436  0.86881522  0.70123877     1.65780
Fe300      Fe  0.70061900  0.86959742  0.63407794     1.73250
Fe301      Fe  0.63158274  0.80704483  0.63175739     1.54420
O302        O  0.62214580  0.77923710  0.67961858    -0.80850
O303        O  0.67738637  0.87199026  0.58531166    -0.79150
O304        O  0.62490579  0.81840383  0.72405732    -0.83350
O305        O  0.58602796  0.86910620  0.68176049    -0.78210
O306        O  0.67928190  0.78041763  0.61777413    -0.79980
O307        O  0.68041973  0.91928537  0.63846696    -0.82730
C308        C  0.57009041  0.85568195  0.65524341     0.98040
C309        C  0.60697473  0.79464408  0.70643537     1.05480
O310        O  0.65715513  0.84717672  0.65674330    -1.11710
O311        O  0.72697277  0.87677938  0.68299118    -0.74140
O312        O  0.68595821  0.87758187  0.72527550    -0.77630
O313        O  0.58295854  0.83088458  0.63607981    -0.78320
C314        C  0.71120725  0.89374902  0.70845443     0.96940
O315        O  0.63683693  0.91866902  0.67944058    -0.76280
O316        O  0.72357602  0.82014700  0.62021810    -0.81470
C317        C  0.64956687  0.85878057  0.57115746     0.99560
C318        C  0.70628760  0.79583105  0.60290489     1.05480
O319        O  0.63222817  0.83285777  0.58437188    -0.77110
C320        C  0.65273373  0.93245181  0.65282461     1.03780
Fe321      Fe  0.69055932  0.13566938  0.62411254     1.65780
Fe322      Fe  0.63309018  0.12472076  0.69414047     1.73250
Fe323      Fe  0.62326157  0.19603088  0.63778089     1.54420
O324        O  0.66946572  0.22232443  0.61588966    -0.80850
O325        O  0.58596739  0.11775505  0.66839946    -0.79150
O326        O  0.71580920  0.18513403  0.62455829    -0.83350
O327        O  0.66750564  0.15062175  0.57711806    -0.78210
O328        O  0.62407031  0.21818515  0.68861258    -0.79980
O329        O  0.64561718  0.07728641  0.67027605    -0.82730
C330        C  0.63442218  0.15458227  0.57046681     0.98040
C331        C  0.70037051  0.21005881  0.60619353     1.05480
O332        O  0.65108912  0.15407990  0.65399245    -1.11710
O333        O  0.68354541  0.12288814  0.71748115    -0.74140
O334        O  0.71732083  0.11192959  0.66887119    -0.77630
O335        O  0.61374265  0.17236769  0.59029519    -0.78320
C336        C  0.70735620  0.10387859  0.70097578     0.96940
O337        O  0.66329746  0.08968101  0.61505142    -0.76280
O338        O  0.61188310  0.17005055  0.72226700    -0.81470
C339        C  0.56804560  0.14034686  0.65085579     0.99560
C340        C  0.60426613  0.20220058  0.71203900     1.05480
O341        O  0.57526724  0.17357077  0.65120108    -0.77110
C342        C  0.64637299  0.07047391  0.63702151     1.03780
Fe343      Fe  0.30652387  0.12281085  0.63466816     1.65780
Fe344      Fe  0.36687906  0.19028253  0.62163410     1.73250
Fe345      Fe  0.37844783  0.13166274  0.69015223     1.54420
O346        O  0.33332735  0.10919453  0.71773800    -0.80850
O347        O  0.41272949  0.16330309  0.61156219    -0.79150
O348        O  0.28448585  0.12324508  0.68562116    -0.83350
O349        O  0.32907629  0.07490784  0.64792407    -0.78210
O350        O  0.37985414  0.18139690  0.71520295    -0.79980
O351        O  0.35117159  0.16743048  0.57457410    -0.82730
C352        C  0.36222410  0.06758397  0.64588215     0.98040
C353        C  0.30047377  0.10303168  0.70873497     1.05480
O354        O  0.34856971  0.15051459  0.65096453    -1.11710
O355        O  0.31737432  0.21551953  0.62278705    -0.74140
O356        O  0.28034369  0.16917314  0.61303646    -0.77630
O357        O  0.38556010  0.08543509  0.66254471    -0.78320
C358        C  0.29235760  0.20043090  0.60417652     0.96940
O359        O  0.33021158  0.11326103  0.58715273    -0.76280
O360        O  0.39129358  0.21590454  0.66708266    -0.81470
C361        C  0.43201042  0.14611329  0.63316838     0.99560
C362        C  0.39851006  0.20602559  0.69950970     1.05480
O363        O  0.42572630  0.14554296  0.66652313    -0.77110
C364        C  0.34866622  0.13409970  0.56815464     1.03780
Fe365      Fe  0.35941318  0.87342133  0.69643691     1.65780
Fe366      Fe  0.29568204  0.86687755  0.62922792     1.73250
Fe367      Fe  0.36826970  0.80944735  0.63035859     1.54410
O368        O  0.41589395  0.83444012  0.63761601    -0.80850
O369        O  0.27455462  0.81554861  0.62306944    -0.79150
O370        O  0.40741371  0.88142889  0.67351950    -0.83350
O371        O  0.37985614  0.82571069  0.72016334    -0.78210
O372        O  0.36941518  0.83655937  0.58368854    -0.79980
O373        O  0.26969397  0.88101281  0.67786759    -0.82730
C374        C  0.39417547  0.79865624  0.70404691     0.98040
C375        C  0.42580103  0.86385462  0.65133399     1.05480
O376        O  0.33988109  0.84824484  0.65343904    -1.11710
O377        O  0.31779132  0.91613361  0.62555316    -0.74140
O378        O  0.34847639  0.92270076  0.67631999    -0.77630
O379        O  0.37683836  0.78278935  0.67870124    -0.78320
C380        C  0.34058880  0.93219241  0.64472320     0.96940
O381        O  0.30963862  0.87419125  0.72096756    -0.76280
O382        O  0.31569622  0.86194309  0.57916977    -0.81470
C383        C  0.29181616  0.79323398  0.60299377     0.99560
C384        C  0.34733273  0.85685664  0.56813485     1.05480
O385        O  0.32208049  0.78051019  0.61367113    -0.77110
C386        C  0.28532829  0.89344325  0.70590071     1.03780
C387        C  0.76233011  0.73684511  0.49960895     0.01390
C388        C  0.73784161  0.76455096  0.49863813     0.01390
C389        C  0.23654565  0.50114813  0.73599106     0.01390
C390        C  0.26260674  0.50205971  0.76206442     0.01390
C391        C  0.49998794  0.23870104  0.73901399     0.01390
C392        C  0.49926471  0.26517190  0.76477219     0.01390
Fe393      Fe  0.63208281  0.62402073  0.19185153     1.65780
Fe394      Fe  0.62187105  0.69459964  0.13480484     1.73250
Fe395      Fe  0.68899389  0.63410188  0.12152431     1.54410
O396        O  0.71576235  0.61075987  0.16677786    -0.80850
O397        O  0.61141537  0.66984698  0.08791696    -0.79150
O398        O  0.68245842  0.62318173  0.21549687    -0.83350
O399        O  0.64565123  0.57627711  0.16912359    -0.78210
O400        O  0.71473442  0.68357561  0.12076412    -0.79980
O401        O  0.57454455  0.67224389  0.14986502    -0.82730
C402        C  0.64475732  0.56928457  0.13596502     0.98040
C403        C  0.70640087  0.60391754  0.19942339     1.05480
O404        O  0.65004306  0.65311510  0.15153088    -1.11710
O405        O  0.62289258  0.71784751  0.18537255    -0.74140
O406        O  0.61017099  0.66966653  0.21902451    -0.77630
O407        O  0.66130552  0.58799484  0.11329358    -0.78320
C408        C  0.60332342  0.70217709  0.20932690     0.96940
O409        O  0.58530609  0.61615030  0.16533107    -0.76280
O410        O  0.66778316  0.72015483  0.11129144    -0.81470
C411        C  0.63204659  0.65165300  0.06842572     0.99560
C412        C  0.69943135  0.70886976  0.10268308     1.05480
O413        O  0.66539809  0.64890479  0.07454433    -0.77110
C414        C  0.56759329  0.63904059  0.14793280     1.03780
Fe415      Fe  0.63181311  0.69849877  0.87639981     1.65780
Fe416      Fe  0.68843239  0.62712917  0.86802136     1.73250
Fe417      Fe  0.62123409  0.63927588  0.80750762     1.54410
O418        O  0.57366601  0.65461254  0.82934854    -0.80850
O419        O  0.71395565  0.62506273  0.81870324    -0.79150
O420        O  0.58431056  0.67350349  0.88448032    -0.83350
O421        O  0.61076813  0.72499084  0.82995238    -0.78210
O422        O  0.61103549  0.59271660  0.83297916    -0.79980
O423        O  0.71586731  0.67244439  0.88995410    -0.82730
C424        C  0.60315003  0.71366127  0.79816864     0.98040
C425        C  0.56653631  0.65502481  0.86250932     1.05480
O426        O  0.64939004  0.65692643  0.84855200    -1.11710
O427        O  0.66072302  0.62030534  0.91407429    -0.74140
O428        O  0.64437894  0.67633888  0.92456727    -0.77630
O429        O  0.62264146  0.68923017  0.78322466    -0.78320
C430        C  0.64343696  0.64319179  0.93188849     0.96940
O431        O  0.68268051  0.72115460  0.87744108    -0.76280
O432        O  0.66480516  0.57974468  0.85483559    -0.81470
C433        C  0.69834903  0.60642082  0.79404786     0.99560
C434        C  0.63173504  0.57296209  0.85081288     1.05480
O435        O  0.66702939  0.61541062  0.78228987    -0.77110
C436        C  0.70618043  0.70490609  0.89707758     1.03780
Fe437      Fe  0.37163820  0.63391588  0.19699908     1.65780
Fe438      Fe  0.30640300  0.63069914  0.13131678     1.73250
Fe439      Fe  0.36684180  0.70138001  0.13296699     1.54410
O440        O  0.37918190  0.72523809  0.18273165    -0.80850
O441        O  0.33119684  0.63275390  0.08324047    -0.79150
O442        O  0.37708751  0.68270181  0.22384075    -0.83350
O443        O  0.42074111  0.64136269  0.17580062    -0.78210
O444        O  0.31598908  0.72379055  0.12550027    -0.79980
O445        O  0.33097843  0.58244521  0.13338044    -0.82730
C446        C  0.43161847  0.65413105  0.14638318     0.98040
C447        C  0.39429365  0.70848190  0.20871598     1.05480
O448        O  0.34686459  0.65648843  0.15511359    -1.11710
O449        O  0.28062029  0.61889213  0.17974535    -0.74140
O450        O  0.32351689  0.61673726  0.22143652    -0.77630
O451        O  0.41640552  0.67966294  0.13016340    -0.78320
C452        C  0.29619248  0.60251346  0.20582109     0.96940
O453        O  0.37605476  0.58585730  0.17228876    -0.76280
O454        O  0.27816004  0.67834373  0.11986753    -0.81470
C455        C  0.35434092  0.65308100  0.06919294     0.99560
C456        C  0.29274586  0.70657401  0.10655024     1.05480
O457        O  0.36398823  0.68263028  0.08256490    -0.77110
C458        C  0.35975426  0.57065687  0.14684488     1.03780
Fe459      Fe  0.31013900  0.63406912  0.87473961     1.65780
Fe460      Fe  0.37737660  0.69487448  0.86290437     1.73250
Fe461      Fe  0.36705113  0.62588134  0.80368694     1.54410
O462        O  0.35404217  0.57745068  0.82496752    -0.80850
O463        O  0.37627667  0.71926328  0.81299806    -0.79150
O464        O  0.33734999  0.58748179  0.88084207    -0.83350
O465        O  0.28243224  0.61333952  0.82908715    -0.78210
O466        O  0.41422777  0.61739391  0.82924629    -0.79980
O467        O  0.33169509  0.72030491  0.88691422    -0.82730
C468        C  0.29251627  0.60591771  0.79685394     0.98040
C469        C  0.35440426  0.56953922  0.85789569     1.05480
O470        O  0.34926391  0.65370818  0.84521212    -1.11710
O471        O  0.38736915  0.66959981  0.90945928    -0.74140
O472        O  0.33408979  0.64611527  0.92212450    -0.77630
O473        O  0.31632894  0.62535875  0.78077830    -0.78320
C474        C  0.36694090  0.65137905  0.92914226     0.96940
O475        O  0.28489501  0.68361511  0.87790179    -0.76280
O476        O  0.42483826  0.67277023  0.84758698    -0.81470
C477        C  0.39590080  0.70432664  0.78868076     0.99560
C478        C  0.43182838  0.63951770  0.84775089     1.05480
O479        O  0.38867445  0.67232010  0.77764475    -0.77110
C480        C  0.30072918  0.70810962  0.89658903     1.03780
Fe481      Fe  0.69311705  0.37157284  0.86975209     1.65780
Fe482      Fe  0.63073893  0.30261038  0.86712580     1.73250
Fe483      Fe  0.63064980  0.36867696  0.80116193     1.54410
O484        O  0.63040947  0.41846845  0.82161151    -0.80850
O485        O  0.62292720  0.27726154  0.81776942    -0.79150
O486        O  0.66823745  0.41976228  0.86763041    -0.83350
O487        O  0.72021496  0.38265810  0.82177174    -0.78210
O488        O  0.58137724  0.36751500  0.82379984    -0.79980
O489        O  0.68042938  0.27955567  0.87968690    -0.82730
C490        C  0.70477506  0.39729816  0.79470996     0.98040
C491        C  0.64275355  0.43282096  0.84957383     1.05480
O492        O  0.65282531  0.34646834  0.84487047    -1.11710
O493        O  0.62856741  0.32484950  0.91645391    -0.74140
O494        O  0.66810988  0.36961403  0.91750131    -0.77630
O495        O  0.68053473  0.37958898  0.77762197    -0.78320
C496        C  0.64170721  0.35278811  0.93040689     0.96940
O497        O  0.72021086  0.32373859  0.88171650    -0.76280
O498        O  0.58119851  0.32311268  0.86385634    -0.81470
C499        C  0.60558693  0.29352544  0.79288821     0.99560
C500        C  0.56801942  0.35121569  0.85035544     1.05480
O501        O  0.62146933  0.31910767  0.77632342    -0.77110
C502        C  0.70487132  0.29682582  0.89680397     1.03780
Fe503      Fe  0.62100256  0.36696439  0.19224435     1.65780
Fe504      Fe  0.68965046  0.37695052  0.13322062     1.73250
Fe505      Fe  0.63285946  0.30559752  0.12530708     1.54420
O506        O  0.61166727  0.28004458  0.17206929    -0.80850
O507        O  0.66241397  0.38313855  0.08675753    -0.79150
O508        O  0.62153366  0.31765956  0.21782467    -0.83350
O509        O  0.57357577  0.35174774  0.17002380    -0.78210
O510        O  0.68375994  0.28309905  0.12510410    -0.79980
O511        O  0.66655262  0.42484020  0.14575887    -0.82730
C512        C  0.56671317  0.34887613  0.13690765     0.98040
C513        C  0.60269787  0.29265639  0.20299426     1.05480
O514        O  0.64992566  0.34786025  0.15242094    -1.11710
O515        O  0.71444847  0.37916122  0.18287227    -0.74140
O516        O  0.66665013  0.39074789  0.21768970    -0.77630
O517        O  0.58525170  0.32981262  0.11611899    -0.78320
C518        C  0.69872141  0.39833607  0.20702682     0.96940
O519        O  0.61169306  0.41298299  0.16508039    -0.76280
O520        O  0.71722109  0.33133932  0.11217479    -0.81470
C521        C  0.64512837  0.36003942  0.06913052     0.99560
C522        C  0.70716651  0.29901539  0.10511164     1.05480
O523        O  0.64571949  0.32702024  0.07702137    -0.77110
C524        C  0.63333506  0.43178674  0.14729262     1.03780
Fe525      Fe  0.36482052  0.30147166  0.87082286     1.65780
Fe526      Fe  0.37229944  0.36590193  0.80462650     1.73250
Fe527      Fe  0.30677836  0.37333725  0.86908618     1.54420
O528        O  0.27798093  0.32673518  0.88438783    -0.80850
O529        O  0.38024296  0.41326959  0.82962180    -0.79150
O530        O  0.31372932  0.27974146  0.87564747    -0.83350
O531        O  0.35867057  0.32079286  0.92094089    -0.78210
O532        O  0.28090963  0.38162772  0.82033387    -0.79980
O533        O  0.42099920  0.35453026  0.82500906    -0.82730
C534        C  0.35367375  0.35243536  0.93195405     0.98040
C535        C  0.29109872  0.29683909  0.89546290     1.05480
O536        O  0.34623201  0.34553236  0.84659012    -1.11710
O537        O  0.37394057  0.31649319  0.77909682    -0.74140
O538        O  0.37986335  0.27613702  0.82216071    -0.77630
O539        O  0.33321059  0.37444377  0.91642844    -0.78320
C540        C  0.39264437  0.29174981  0.79429274     0.96940
O541        O  0.41353957  0.32451459  0.87584090    -0.76280
O542        O  0.32523207  0.38649016  0.78027237    -0.81470
C543        C  0.36233822  0.43057627  0.85246361     0.99560
C544        C  0.29664021  0.39904270  0.79500686     1.05480
O545        O  0.33133067  0.42139812  0.86280383    -0.77110
C546        C  0.42988869  0.34723921  0.85685667     1.03780
Fe547      Fe  0.30933839  0.36724946  0.12493221     1.65780
Fe548      Fe  0.36636703  0.37565455  0.19554341     1.73250
Fe549      Fe  0.37521123  0.30510988  0.13764042     1.54410
O550        O  0.32853605  0.28005765  0.11533165    -0.80850
O551        O  0.41372771  0.38226806  0.16971902    -0.79150
O552        O  0.28299797  0.31831724  0.12388205    -0.83350
O553        O  0.33229024  0.35286871  0.07774097    -0.78210
O554        O  0.37424443  0.28228530  0.18824176    -0.79980
O555        O  0.35444875  0.42385373  0.17299008    -0.82730
C556        C  0.36521547  0.34804934  0.07090796     0.98040
C557        C  0.29812155  0.29328062  0.10534417     1.05480
O558        O  0.34809271  0.34730734  0.15465844    -1.11710
O559        O  0.31587463  0.37768797  0.21886682    -0.74140
O560        O  0.28283873  0.39043062  0.17010740    -0.77630
O561        O  0.38538615  0.32919030  0.09028216    -0.78320
C562        C  0.29217910  0.39711860  0.20271700     0.96940
O563        O  0.33780909  0.41283750  0.11724375    -0.76280
O564        O  0.38650818  0.32960923  0.22298750    -0.81470
C565        C  0.43089478  0.35960745  0.15140401     0.99560
C566        C  0.39421439  0.29779225  0.21192639     1.05480
O567        O  0.42325715  0.32651849  0.15173221    -0.77110
C568        C  0.35483293  0.43118983  0.13989423     1.03780
C569        C  0.76167789  0.50235652  0.73985741     0.01390
C570        C  0.73446801  0.50260473  0.76480135     0.01390
C571        C  0.99844271  0.23752789  0.23668171     0.01390
C572        C  0.99824509  0.26321438  0.26310505     0.01390
C573        C  0.73510590  0.23892241  0.50195867     0.01390
C574        C  0.76129965  0.26497714  0.50193812     0.01390
C575        C  0.73638907  0.50098564  0.23720794     0.01390
C576        C  0.76223845  0.50041424  0.26349071     0.01390
Fe577      Fe  0.13168216  0.69717546  0.36720864     1.65780
Fe578      Fe  0.20178720  0.63551473  0.36485196     1.73250
Fe579      Fe  0.13217394  0.63015169  0.30313461     1.54420
O580        O  0.08413145  0.62879976  0.32791179    -0.80850
O581        O  0.22472871  0.62585537  0.31451903    -0.79150
O582        O  0.08322929  0.67302897  0.36785147    -0.83350
O583        O  0.11887403  0.72150977  0.31835748    -0.78210
O584        O  0.13719728  0.58194638  0.32731271    -0.79980
O585        O  0.22393293  0.68624840  0.37418036    -0.82730
C586        C  0.10249653  0.70497918  0.29291203     0.98040
C587        C  0.07005882  0.64508139  0.35399207     1.05480
O588        O  0.15624704  0.65550894  0.34379397    -1.11710
O589        O  0.18111836  0.63548254  0.41471385    -0.74140
O590        O  0.13538141  0.67409416  0.41569876    -0.77630
O591        O  0.11749474  0.67808594  0.27731703    -0.78320
C592        C  0.15288832  0.64812201  0.42859882     0.96940
O593        O  0.17955752  0.72505432  0.37617252    -0.76280
O594        O  0.18330324  0.58503758  0.36515178    -0.81470
C595        C  0.20736223  0.60744013  0.29108538     0.99560
C596        C  0.15562206  0.56987792  0.35303505     1.05480
O597        O  0.18043411  0.62222693  0.27561505    -0.77110
C598        C  0.20616175  0.70990890  0.39177578     1.03780
Fe599      Fe  0.79753303  0.63266835  0.36683811     1.65780
Fe600      Fe  0.86580644  0.69616303  0.37023196     1.73250
Fe601      Fe  0.86619269  0.63122918  0.30387553     1.54420
O602        O  0.86326939  0.58247932  0.32666974    -0.80850
O603        O  0.87923791  0.72163214  0.32193229    -0.79150
O604        O  0.81887633  0.58272784  0.36672047    -0.83350
O605        O  0.77434540  0.62310825  0.31670911    -0.78210
O606        O  0.91488173  0.63121404  0.32763122    -0.79980
O607        O  0.81721114  0.72293226  0.37846960    -0.82730
C608        C  0.79161260  0.60603958  0.29233125     0.98040
C609        C  0.84684042  0.56919613  0.35310581     1.05480
O610        O  0.84212944  0.65455353  0.34582054    -1.11710
O611        O  0.86183754  0.67294221  0.41889267    -0.74140
O612        O  0.81744201  0.63297514  0.41671765    -0.77630
O613        O  0.81793677  0.62185131  0.27686311    -0.78320
C614        C  0.84450684  0.64674363  0.43159535     0.96940
O615        O  0.77377625  0.68274768  0.37668453    -0.76280
O616        O  0.91423960  0.67207600  0.37109002    -0.81470
C617        C  0.89461591  0.70562763  0.29558530     0.99560
C618        C  0.92828380  0.64573320  0.35512617     1.05480
O619        O  0.87821119  0.68012981  0.27920506    -0.77110
C620        C  0.79082923  0.70723036  0.39400199     1.03780
Fe621      Fe  0.86335957  0.69477147  0.62604694     1.65780
Fe622      Fe  0.80411213  0.62586824  0.63801341     1.73250
Fe623      Fe  0.87342389  0.63745887  0.69679716     1.54420
O624        O  0.92157391  0.64930767  0.67405194    -0.80850
O625        O  0.78052849  0.62621365  0.68819756    -0.79150
O626        O  0.91046198  0.66938834  0.61929221    -0.83350
O627        O  0.88410101  0.72306287  0.67142086    -0.78210
O628        O  0.88132703  0.58994273  0.67250064    -0.79980
O629        O  0.77738819  0.67124423  0.61485222    -0.82730
C630        C  0.89352324  0.71166790  0.70264792     0.98040
C631        C  0.92907593  0.65159879  0.64104273     1.05480
O632        O  0.84510007  0.65463449  0.65539770    -1.11710
O633        O  0.82908609  0.61667397  0.59133305    -0.74140
O634        O  0.85166172  0.67039942  0.57870771    -0.77630
O635        O  0.87416021  0.68823065  0.71914265    -0.78320
C636        C  0.84704902  0.63740269  0.57175432     0.96940
O637        O  0.81319896  0.71858823  0.62363525    -0.76280
O638        O  0.82686089  0.57817136  0.65172057    -0.81470
C639        C  0.79642437  0.60712512  0.71226526     0.99560
C640        C  0.85994764  0.57092723  0.65460343     1.05480
O641        O  0.82749580  0.61661361  0.72411274    -0.77110
C642        C  0.78927378  0.70217895  0.60477663     1.03780
Fe643      Fe  0.13209080  0.69617986  0.62897453     1.65780
Fe644      Fe  0.19917060  0.63160302  0.63276705     1.73250
Fe645      Fe  0.13042854  0.63176697  0.69556345     1.54420
O646        O  0.11944677  0.68095877  0.72026482    -0.80850
O647        O  0.17876028  0.58145486  0.63543220    -0.79150
O648        O  0.11782475  0.72198915  0.67712889    -0.83350
O649        O  0.08383622  0.67221974  0.62744943    -0.78210
O650        O  0.17878998  0.62105507  0.72244957    -0.79980
O651        O  0.17736950  0.62946794  0.58373913    -0.82730
C652        C  0.06908748  0.64661466  0.64385607     0.98040
C653        C  0.10273480  0.70627441  0.70385052     1.05480
O654        O  0.15506648  0.65450005  0.65371146    -1.11710
O655        O  0.22336508  0.68107869  0.61986212    -0.74140
O656        O  0.18090472  0.72239735  0.62090738    -0.77630
O657        O  0.08155304  0.63293225  0.67218594    -0.78320
C658        C  0.20645544  0.70661553  0.60403295     0.96940
O659        O  0.13650042  0.67294896  0.58036914    -0.76280
O660        O  0.22275160  0.62423273  0.68289803    -0.81470
C661        C  0.14947746  0.56901069  0.64708274     0.99560
C662        C  0.20583071  0.60636605  0.70701587     1.05480
O663        O  0.13171044  0.58321428  0.67211498    -0.77110
C664        C  0.15136330  0.64483026  0.56857709     1.03780
Fe665      Fe  0.80474167  0.37625039  0.36638886     1.65780
Fe666      Fe  0.86519799  0.30860666  0.37847279     1.73250
Fe667      Fe  0.87559573  0.36731560  0.30962934     1.54410
O668        O  0.83020569  0.38962409  0.28262964    -0.80850
O669        O  0.91147501  0.33560911  0.38735383    -0.79150
O670        O  0.78182825  0.37644035  0.31576723    -0.83350
O671        O  0.82699365  0.42411557  0.35303769    -0.78210
O672        O  0.87642963  0.31751699  0.28488826    -0.79980
O673        O  0.85098385  0.33127778  0.42587841    -0.82730
C674        C  0.86012345  0.43150515  0.35428322     0.98040
C675        C  0.79772489  0.39641418  0.29235589     1.05480
O676        O  0.84638732  0.34844348  0.34937781    -1.11710
O677        O  0.81551982  0.28356570  0.37888080    -0.74140
O678        O  0.77855438  0.33002271  0.38813787    -0.77630
O679        O  0.88309695  0.41363464  0.33710071    -0.78320
C680        C  0.79081912  0.29906433  0.39759523     0.96940
O681        O  0.82936153  0.38526374  0.41356804    -0.76280
O682        O  0.88803029  0.28262020  0.33263474    -0.81470
C683        C  0.93009358  0.35315082  0.36538921     0.99560
C684        C  0.89540482  0.29308025  0.30047270     1.05480
O685        O  0.92324550  0.35342631  0.33219925    -0.77110
C686        C  0.84771330  0.36441715  0.43271477     1.03780
Fe687      Fe  0.19327957  0.36309103  0.37726369     1.65780
Fe688      Fe  0.13228388  0.37662307  0.31038883     1.73250
Fe689      Fe  0.12176008  0.30667472  0.36809301     1.54420
O690        O  0.16719426  0.27875951  0.38936403    -0.80850
O691        O  0.08604148  0.38516701  0.33716783    -0.79150
O692        O  0.21531744  0.31213633  0.37635742    -0.83350
O693        O  0.17097627  0.34955298  0.42512195    -0.78210
O694        O  0.12020336  0.28297920  0.31787605    -0.79980
O695        O  0.14628803  0.42373059  0.33405448    -0.82730
C696        C  0.13781656  0.35062271  0.43247119     0.98040
C697        C  0.19945769  0.28893160  0.39654770     1.05480
O698        O  0.15100649  0.34689114  0.34977979    -1.11710
O699        O  0.18179240  0.37720794  0.28520621    -0.74140
O700        O  0.21938602  0.38534725  0.33116974    -0.77630
O701        O  0.11488724  0.33303742  0.41496094    -0.78320
C702        C  0.20661000  0.39567790  0.30073060     0.96940
O703        O  0.17004688  0.41064955  0.38704692    -0.76280
O704        O  0.10937063  0.33132325  0.28357243    -0.81470
C705        C  0.06721186  0.36329712  0.35458889     0.99560
C706        C  0.10129718  0.29924325  0.29386714     1.05480
O707        O  0.07400237  0.33001279  0.35545579    -0.77110
C708        C  0.15178047  0.43053037  0.36689779     1.03780
Fe709      Fe  0.86202627  0.30500430  0.62803523     1.65780
Fe710      Fe  0.80314013  0.37528724  0.63776055     1.73250
Fe711      Fe  0.87332162  0.36576557  0.69619369     1.54410
O712        O  0.87487431  0.31578967  0.72031496    -0.80850
O713        O  0.82662785  0.42360115  0.64787687    -0.79150
O714        O  0.88150048  0.27790454  0.67454966    -0.83350
O715        O  0.90998505  0.32807472  0.62084040    -0.78210
O716        O  0.82776060  0.38755505  0.72349416    -0.79980
O717        O  0.82713121  0.38131900  0.59021571    -0.82730
C718        C  0.92909050  0.34739094  0.64080084     0.98040
C719        C  0.89332351  0.29146015  0.70406137     1.05480
O720        O  0.84450543  0.34700801  0.65569608    -1.11710
O721        O  0.77511072  0.32928723  0.61804228    -0.74140
O722        O  0.81133481  0.28254744  0.62628968    -0.77630
O723        O  0.92144006  0.35398111  0.67320773    -0.78320
C724        C  0.78788197  0.29907740  0.60710242     0.96940
O725        O  0.85187606  0.32805880  0.57956763    -0.76280
O726        O  0.78018659  0.37833635  0.68824460    -0.81470
C727        C  0.85947759  0.43131030  0.65219510     0.99560
C728        C  0.79679047  0.39753842  0.71174440     1.05480
O729        O  0.88054308  0.41251349  0.67063099    -0.77110
C730        C  0.84625507  0.36067077  0.57162000     1.03780
Fe731      Fe  0.12272981  0.36783147  0.69011454     1.65780
Fe732      Fe  0.19425082  0.37673921  0.63393196     1.73250
Fe733      Fe  0.13469911  0.30833309  0.62225467     1.54410
O734        O  0.11078623  0.28273328  0.66781042    -0.80850
O735        O  0.16998567  0.38545665  0.58640645    -0.79150
O736        O  0.12133199  0.31829010  0.71524035    -0.83350
O737        O  0.07533641  0.35423401  0.66668330    -0.78210
O738        O  0.18444318  0.28382133  0.62369446    -0.79980
O739        O  0.17157452  0.42465828  0.64676861    -0.82730
C740        C  0.06865167  0.35156237  0.63350967     0.98040
C741        C  0.10249135  0.29381319  0.69955150     1.05480
O742        O  0.15254590  0.34883190  0.65091260    -1.11710
O743        O  0.21658752  0.37710204  0.68477167    -0.74140
O744        O  0.16789018  0.39024736  0.71753382    -0.77630
O745        O  0.08846586  0.33440371  0.61231903    -0.78320
C746        C  0.20044663  0.39708602  0.70801275     0.96940
O747        O  0.11546301  0.41376778  0.66242059    -0.76280
O748        O  0.22076869  0.33035644  0.61273135    -0.81470
C749        C  0.15157434  0.36400156  0.56798523     0.99560
C750        C  0.20894478  0.29887198  0.60446206     1.05480
O751        O  0.14991735  0.33074027  0.57486739    -0.77110
C752        C  0.13835169  0.43169350  0.64527708     1.03780
C753        C  0.98029695  0.38857901  0.64464450    -0.12520
C754        C  0.96241000  0.36078815  0.62651684     0.09630
C755        C  0.97924535  0.34220674  0.59833756    -0.12520
C756        C  0.01620049  0.34460429  0.59510718    -0.12520
C757        C  0.03497092  0.36518623  0.62043479     0.09630
C758        C  0.01717571  0.39107073  0.64124522    -0.12520
H759        H  0.96676908  0.40482315  0.66478095     0.13620
H760        H  0.96506448  0.32205831  0.58267893     0.13620
H761        H  0.02996931  0.32570820  0.57763239     0.13620
H762        H  0.03189299  0.40861817  0.65936799     0.13620
C763        C  0.14924597  0.39717373  0.47721581    -0.12520
C764        C  0.12667474  0.36985403  0.46408695     0.09630
C765        C  0.10051860  0.35429759  0.48613096    -0.12520
C766        C  0.10452818  0.35779986  0.52286991    -0.12520
C767        C  0.13427139  0.37698150  0.53603183     0.09630
C768        C  0.15307289  0.40088180  0.51396640    -0.12520
H769        H  0.16821594  0.41081617  0.45976216     0.13620
H770        H  0.08173051  0.33445009  0.47582702     0.13620
H771        H  0.08861358  0.34073216  0.54034348     0.13620
H772        H  0.17500536  0.41715036  0.52433254     0.13620
C773        C  0.84356957  0.40472690  0.48420368    -0.12520
C774        C  0.86246809  0.37788863  0.46575261     0.09630
C775        C  0.88836612  0.35694300  0.48338113    -0.12520
C776        C  0.88699089  0.35488111  0.52035364    -0.12520
C777        C  0.86024624  0.37438176  0.53833996     0.09630
C778        C  0.84235098  0.40287267  0.52124332    -0.12520
H779        H  0.82494816  0.42250654  0.47046643     0.13620
H780        H  0.90490764  0.33779175  0.46880015     0.13620
H781        H  0.90285275  0.33453139  0.53400969     0.13620
H782        H  0.82318792  0.41969487  0.53545062     0.13620
C783        C  0.98356962  0.35321498  0.40326083    -0.12520
C784        C  0.96233567  0.37069413  0.37764493     0.09630
C785        C  0.97669771  0.39841409  0.35643108    -0.12520
C786        C  0.01366776  0.40114129  0.35334521    -0.12520
C787        C  0.03482955  0.37592242  0.37151468     0.09630
C788        C  0.02054521  0.35574147  0.39999118    -0.12520
H789        H  0.97232933  0.33293603  0.42097709     0.13620
H790        H  0.95989338  0.41338497  0.33786609     0.13620
H791        H  0.02487625  0.41806757  0.33239253     0.13620
H792        H  0.03735263  0.33757649  0.41545731     0.13620
C793        C  0.15676487  0.51702979  0.60669299    -0.12520
C794        C  0.13591955  0.53599668  0.63175648     0.09630
C795        C  0.10406862  0.52080585  0.64534877    -0.12520
C796        C  0.09933841  0.48402485  0.64259164    -0.12520
C797        C  0.12705519  0.46390158  0.62702813     0.09630
C798        C  0.15181606  0.48030517  0.60383934    -0.12520
H799        H  0.17978403  0.52921179  0.59352374     0.13620
H800        H  0.08585089  0.53603102  0.66232448     0.13620
H801        H  0.07846413  0.47135461  0.65857872     0.13620
H802        H  0.17174437  0.46452119  0.58946708     0.13620
C803        C  0.97862227  0.60951551  0.64972274    -0.12520
C804        C  0.96208946  0.63590537  0.62853394     0.09630
C805        C  0.98112281  0.65315973  0.60105781    -0.12520
C806        C  0.01825420  0.65201565  0.60204523    -0.12520
C807        C  0.03495843  0.63372043  0.63053500     0.09630
C808        C  0.01571860  0.60834288  0.65071479    -0.12520
H809        H  0.96344494  0.59418380  0.66937286     0.13620
H810        H  0.96810252  0.67204210  0.58302203     0.13620
H811        H  0.03324062  0.66974842  0.58437730     0.13620
H812        H  0.02869224  0.59191907  0.67103322     0.13620
C813        C  0.90091294  0.51954418  0.65697558    -0.12520
C814        C  0.87292957  0.53777261  0.63956091     0.09630
C815        C  0.85191091  0.52040427  0.61354704    -0.12520
C816        C  0.85175159  0.48328660  0.61286614    -0.12520
C817        C  0.87265280  0.46488120  0.63820233     0.09630
C818        C  0.90080619  0.48236663  0.65624233    -0.12520
H819        H  0.91869571  0.53319376  0.67566537     0.13620
H820        H  0.83180618  0.53491266  0.59813497     0.13620
H821        H  0.83152611  0.46948645  0.59695044     0.13620
H822        H  0.91857657  0.46798881  0.67437157     0.13620
C823        C  0.83471337  0.60523231  0.48199340    -0.12520
C824        C  0.85564847  0.63208746  0.46561177     0.09630
C825        C  0.88490950  0.64740922  0.48384248    -0.12520
C826        C  0.88705267  0.64306328  0.52057359    -0.12520
C827        C  0.85957077  0.62403651  0.53790508     0.09630
C828        C  0.83690497  0.60094798  0.51873015    -0.12520
H829        H  0.81361915  0.59113930  0.46755098     0.13620
H830        H  0.90306464  0.66619863  0.47083381     0.13620
H831        H  0.90607796  0.65930568  0.53565836     0.13620
H832        H  0.81673035  0.58467177  0.53216200     0.13620
C833        C  0.84030012  0.51667281  0.39292430    -0.12520
C834        C  0.86069807  0.53608343  0.36790205     0.09630
C835        C  0.89264211  0.52139661  0.35389543    -0.12520
C836        C  0.89802749  0.48469561  0.35640371    -0.12520
C837        C  0.87094244  0.46405317  0.37229914     0.09630
C838        C  0.84601064  0.48004147  0.39567632    -0.12520
H839        H  0.81713756  0.52841369  0.40625457     0.13620
H840        H  0.91051128  0.53699339  0.33690611     0.13620
H841        H  0.91893356  0.47243207  0.34013911     0.13620
H842        H  0.82649640  0.46389501  0.41018619     0.13620
C843        C  0.11152757  0.64902170  0.47991279    -0.12520
C844        C  0.14075192  0.63311458  0.46211226     0.09630
C845        C  0.16188555  0.60715420  0.47945292    -0.12520
C846        C  0.16105933  0.60581483  0.51646158    -0.12520
C847        C  0.13930852  0.63067743  0.53465915     0.09630
C848        C  0.11077287  0.64774209  0.51691024    -0.12520
H849        H  0.09286231  0.66674267  0.46615291     0.13620
H850        H  0.18260485  0.59220492  0.46533537     0.13620
H851        H  0.18134758  0.59005666  0.53030414     0.13620
H852        H  0.09171267  0.66465264  0.53117039     0.13620
C853        C  0.01813982  0.65191244  0.39426192    -0.12520
C854        C  0.03584933  0.63230587  0.36733210     0.09630
C855        C  0.01755670  0.60532861  0.34831669    -0.12520
C856        C  0.98039623  0.60558949  0.34852921    -0.12520
C857        C  0.96267915  0.63278060  0.36779265     0.09630
C858        C  0.98097721  0.65216415  0.39448853    -0.12520
H859        H  0.03239278  0.67092037  0.41122838     0.13620
H860        H  0.03132031  0.58795171  0.32933198     0.13620
H861        H  0.96615374  0.58835970  0.32976216     0.13620
H862        H  0.96721265  0.67136419  0.41163372     0.13620
C863        C  0.11446039  0.51820953  0.35644431    -0.12520
C864        C  0.14492712  0.53639547  0.36927978     0.09630
C865        C  0.16692688  0.52064752  0.39564664    -0.12520
C866        C  0.16417350  0.48411836  0.40165225    -0.12520
C867        C  0.13996482  0.46453300  0.38060469     0.09630
C868        C  0.11172131  0.48171344  0.36259205    -0.12520
H869        H  0.09554272  0.53087172  0.33819525     0.13620
H870        H  0.18902812  0.53520683  0.40796173     0.13620
H871        H  0.18500100  0.47085618  0.41721842     0.13620
H872        H  0.09157972  0.46636628  0.34802832     0.13620
C873        C  0.77543500  0.46449013  0.27663243    -0.12450
C874        C  0.78341144  0.43273469  0.28316436    -0.14000
C875        C  0.77618505  0.53575578  0.27729268    -0.12450
C876        C  0.78315842  0.56766516  0.28413983    -0.14000
C877        C  0.77493401  0.27837749  0.46624418    -0.12450
C878        C  0.78179080  0.28604372  0.43448444    -0.14000
C879        C  0.78007672  0.28723695  0.56949081    -0.12450
C880        C  0.77413623  0.27923159  0.53761569    -0.14000
C881        C  0.06517623  0.28532434  0.28373984    -0.12450
C882        C  0.03367767  0.27702197  0.27668211    -0.14000
C883        C  0.93122850  0.28295007  0.28584376    -0.12450
C884        C  0.96266617  0.27610949  0.27715857    -0.14000
C885        C  0.77596539  0.46650168  0.72723063    -0.12450
C886        C  0.78409861  0.43468584  0.72074089    -0.14000
C887        C  0.77591696  0.53804091  0.72700922    -0.12450
C888        C  0.78375377  0.56992138  0.72072516    -0.14000
C889        C  0.35640190  0.39145233  0.98515145    -0.12520
C890        C  0.37062824  0.36284497  0.96521140     0.09630
C891        C  0.39698658  0.34022738  0.98016687    -0.12520
C892        C  0.40128029  0.33980692  0.01703903    -0.12520
C893        C  0.37893919  0.36191663  0.03762991     0.09630
C894        C  0.36085833  0.39109743  0.02198912    -0.12520
H895        H  0.33770856  0.41054258  0.97341055     0.13620
H896        H  0.41015795  0.31956547  0.96429353     0.13620
H897        H  0.41679503  0.31826673  0.02918079     0.13620
H898        H  0.34516295  0.40960023  0.03823563     0.13620
C899        C  0.72204109  0.46569534  0.22381181    -0.12450
C900        C  0.71326575  0.43427609  0.21693520    -0.14000
C901        C  0.51249813  0.34539591  0.10047053    -0.12520
C902        C  0.53446011  0.36538830  0.12349090     0.09630
C903        C  0.52074817  0.39523690  0.14213396    -0.12520
C904        C  0.48391842  0.39806785  0.14644665    -0.12520
C905        C  0.46235632  0.37088553  0.13192161     0.09630
C906        C  0.47567789  0.34815664  0.10483833    -0.12520
H907        H  0.52321732  0.32337618  0.08456561     0.13620
H908        H  0.53812095  0.41211498  0.15841820     0.13620
H909        H  0.47340789  0.41703506  0.16598839     0.13620
H910        H  0.45853492  0.32841902  0.09185401     0.13620
C911        C  0.71320288  0.43530720  0.78505685    -0.12450
C912        C  0.72028311  0.46713576  0.77799694    -0.14000
C913        C  0.51904515  0.34529211  0.89412173    -0.12520
C914        C  0.53477643  0.36420715  0.86543358     0.09630
C915        C  0.51546374  0.39115603  0.84760077    -0.12520
C916        C  0.47846207  0.39092650  0.85057688    -0.12520
C917        C  0.46237555  0.36320319  0.87053013     0.09630
C918        C  0.48202003  0.34469507  0.89666566    -0.12520
H919        H  0.53443344  0.32666231  0.91048251     0.13620
H920        H  0.52791529  0.40821628  0.82748018     0.13620
H921        H  0.46283134  0.40762916  0.83245019     0.13620
H922        H  0.46942855  0.32512895  0.91427025     0.13620
C923        C  0.64137080  0.39668081  0.97979402    -0.12520
C924        C  0.62693166  0.36550749  0.96397338     0.09630
C925        C  0.60352436  0.34334144  0.98349345    -0.12520
C926        C  0.60346402  0.34621598  0.02048592    -0.12520
C927        C  0.62720729  0.37074428  0.03658442     0.09630
C928        C  0.64150516  0.39935715  0.01681109    -0.12520
H929        H  0.65721544  0.41574556  0.96439330     0.13620
H930        H  0.58994116  0.32064276  0.97112893     0.13620
H931        H  0.59017022  0.32546938  0.03614075     0.13620
H932        H  0.65810982  0.41984056  0.02934266     0.13620
C933        C  0.35804376  0.51711499  0.89742029    -0.12520
C934        C  0.37224565  0.53693583  0.86879438     0.09630
C935        C  0.39721514  0.52132620  0.84518796    -0.12520
C936        C  0.39946524  0.48423324  0.84362781    -0.12520
C937        C  0.37663604  0.46411096  0.86577089     0.09630
C938        C  0.36033532  0.48000931  0.89589705    -0.12520
H939        H  0.34031854  0.52936651  0.91710530     0.13620
H940        H  0.41020208  0.53710648  0.82436537     0.13620
H941        H  0.41393947  0.47193061  0.82147984     0.13620
H942        H  0.34454790  0.46416321  0.91464290     0.13620
C943        C  0.36196984  0.61096543  0.98005098    -0.12520
C944        C  0.38027306  0.63924880  0.96317285     0.09630
C945        C  0.40172122  0.66294468  0.98295742    -0.12520
C946        C  0.39637853  0.66485738  0.01960195    -0.12520
C947        C  0.37009769  0.64269471  0.03535485     0.09630
C948        C  0.35648260  0.61289011  0.01667894    -0.12520
H949        H  0.34693572  0.59130529  0.96453334     0.13620
H950        H  0.41735554  0.68388794  0.96994538     0.13620
H951        H  0.40921653  0.68646326  0.03446143     0.13620
H952        H  0.33807105  0.59399183  0.02915629     0.13620
C953        C  0.35716209  0.52096931  0.10331140    -0.12520
C954        C  0.37354832  0.53684365  0.13343991     0.09630
C955        C  0.39767669  0.51703649  0.15454022    -0.12520
C956        C  0.39708096  0.47993837  0.15191173    -0.12520
C957        C  0.37217509  0.46391869  0.12854210     0.09630
C958        C  0.35651492  0.48384525  0.10077671    -0.12520
H959        H  0.34047151  0.53653876  0.08513571     0.13620
H960        H  0.41243480  0.52933910  0.17649697     0.13620
H961        H  0.41114413  0.46416908  0.17203840     0.13620
H962        H  0.33878301  0.47136249  0.08124148     0.13620
C963        C  0.71202702  0.56995368  0.78437302    -0.12450
C964        C  0.72032434  0.53832281  0.77758489    -0.14000
C965        C  0.52248452  0.60714459  0.85409514    -0.12520
C966        C  0.53501839  0.63623618  0.87469931     0.09630
C967        C  0.51248569  0.65328494  0.89945092    -0.12520
C968        C  0.47577801  0.64885596  0.89544237    -0.12520
C969        C  0.46316279  0.62748025  0.86696169     0.09630
C970        C  0.48577998  0.60252530  0.85029414    -0.12520
H971        H  0.54029809  0.59247518  0.83627124     0.13620
H972        H  0.52234184  0.67462694  0.91677196     0.13620
H973        H  0.45793816  0.66686965  0.90985972     0.13620
H974        H  0.47589307  0.58460485  0.82947857     0.13620
C975        C  0.59555240  0.51941819  0.84145394    -0.12520
C976        C  0.61839795  0.53916121  0.86384501     0.09630
C977        C  0.63757857  0.52225983  0.89149559    -0.12520
C978        C  0.64242454  0.48546042  0.88973660    -0.12520
C979        C  0.62734320  0.46667640  0.86074037     0.09630
C980        C  0.60023658  0.48258909  0.83972931    -0.12520
H981        H  0.57920868  0.53246912  0.82111245     0.13620
H982        H  0.65367448  0.53776225  0.91029374     0.13620
H983        H  0.66148350  0.47288198  0.90789234     0.13620
H984        H  0.58631380  0.46771297  0.81884104     0.13620
C985        C  0.71692992  0.56819431  0.21424065    -0.12450
C986        C  0.72378655  0.53676430  0.22313531    -0.14000
C987        C  0.59475860  0.65687730  0.01498203    -0.12520
C988        C  0.61796539  0.63610036  0.03602128     0.09630
C989        C  0.63598403  0.60637137  0.02134387    -0.12520
C990        C  0.63931100  0.60413890  0.98442705    -0.12520
C991        C  0.62461234  0.63187779  0.96370450     0.09630
C992        C  0.59826367  0.65481081  0.97806486    -0.12520
H993        H  0.57937055  0.67887137  0.02648725     0.13620
H994        H  0.65244346  0.58898023  0.03801526     0.13620
H995        H  0.65831123  0.58506394  0.97312394     0.13620
H996        H  0.58517098  0.67500748  0.96157022     0.13620
C997        C  0.59961369  0.52287331  0.14655473    -0.12520
C998        C  0.62686876  0.53691124  0.12452168     0.09630
C999        C  0.64349775  0.51540532  0.09855620    -0.12520
C1000       C  0.64046621  0.47845020  0.10182859    -0.12520
C1001       C  0.62070834  0.46437585  0.13072682     0.09630
C1002       C  0.59639220  0.48592680  0.14965340    -0.12520
H1003       H  0.58535360  0.53987945  0.16550719     0.13620
H1004       H  0.66348728  0.52637411  0.08034586     0.13620
H1005       H  0.65803397  0.46140451  0.08593054     0.13620
H1006       H  0.57987862  0.47494381  0.17105009     0.13620
C1007       C  0.52074350  0.65270506  0.10457068    -0.12520
C1008       C  0.53586336  0.62793687  0.12869033     0.09630
C1009       C  0.51457641  0.60112768  0.14419145    -0.12520
C1010       C  0.47790967  0.60702666  0.14584689    -0.12520
C1011       C  0.46405902  0.63911982  0.13136802     0.09630
C1012       C  0.48413375  0.65891378  0.10644509    -0.12520
H1013       H  0.53743040  0.67197252  0.09036332     0.13620
H1014       H  0.52620551  0.58030372  0.16100017     0.13620
H1015       H  0.46165867  0.58966661  0.16276550     0.13620
H1016       H  0.47301503  0.68225254  0.09290875     0.13620
C1017       C  0.46315352  0.27867545  0.77734543    -0.12450
C1018       C  0.43097234  0.28493545  0.78396946    -0.14000
C1019       C  0.56680866  0.28541101  0.78565350    -0.12450
C1020       C  0.53470699  0.27885385  0.77894251    -0.14000
C1021       C  0.28423988  0.43567177  0.78471838    -0.12450
C1022       C  0.27633866  0.46703288  0.77668167    -0.14000
C1023       C  0.27578545  0.53803267  0.77495992    -0.12450
C1024       C  0.28272575  0.56970655  0.78279784    -0.14000
C1025       C  0.22301227  0.46510822  0.72354680    -0.12450
C1026       C  0.21476873  0.43337413  0.71727195    -0.14000
C1027       C  0.22252351  0.53632256  0.72184307    -0.12450
C1028       C  0.21524695  0.56814508  0.71490814    -0.14000
C1029       C  0.77567649  0.72212113  0.46437981    -0.12450
C1030       C  0.78237508  0.71508295  0.43246050    -0.14000
C1031       C  0.78038653  0.71471271  0.56759897    -0.12450
C1032       C  0.77423285  0.72271538  0.53573191    -0.14000
C1033       C  0.43377459  0.21742789  0.71478728    -0.12450
C1034       C  0.46484937  0.22508129  0.72427389    -0.14000
C1035       C  0.34840003  0.02088869  0.60246315    -0.12520
C1036       C  0.37275002  0.03515991  0.62752896     0.09630
C1037       C  0.39736216  0.01278176  0.64498590    -0.12520
C1038       C  0.38932055  0.97653292  0.64703092    -0.12520
C1039       C  0.35761444  0.96399679  0.63069132     0.09630
C1040       C  0.34019175  0.98465608  0.60452063    -0.12520
H1041       H  0.33079130  0.03833435  0.58706793     0.13620
H1042       H  0.41777310  0.02366536  0.66279555     0.13620
H1043       H  0.40470838  0.95970999  0.66523890     0.13620
H1044       H  0.31707680  0.97446099  0.58989630     0.13620
C1045       C  0.72124641  0.22572198  0.53759599    -0.12450
C1046       C  0.71331286  0.21911400  0.56931884    -0.14000
C1047       C  0.53594663  0.22461263  0.72687825    -0.12450
C1048       C  0.56767701  0.21614126  0.72084836    -0.14000
C1049       C  0.52314370  0.14997438  0.60389332    -0.12520
C1050       C  0.53654567  0.12845890  0.63183135     0.09630
C1051       C  0.51573385  0.10064829  0.64631579    -0.12520
C1052       C  0.47901961  0.10130351  0.64034326    -0.12520
C1053       C  0.46460121  0.12982186  0.62030638     0.09630
C1054       C  0.48648331  0.15034782  0.59768785    -0.12520
H1055       H  0.53979756  0.17021026  0.59107951     0.13620
H1056       H  0.52642740  0.08265499  0.66663745     0.13620
H1057       H  0.46181998  0.08413402  0.65649884     0.13620
H1058       H  0.47530570  0.17138898  0.58083122     0.13620
C1059       C  0.71654944  0.78644370  0.56533421    -0.12450
C1060       C  0.72413454  0.77907439  0.53373334    -0.14000
C1061       C  0.65579711  0.98047025  0.60737908    -0.12520
C1062       C  0.63897982  0.96549774  0.63777817     0.09630
C1063       C  0.61078394  0.98384166  0.65479004    -0.12520
C1064       C  0.60636764  0.02007058  0.64766678    -0.12520
C1065       C  0.63126379  0.03695046  0.62493638     0.09630
C1066       C  0.65154730  0.01676158  0.60059414    -0.12520
H1067       H  0.67553309  0.96559145  0.59185019     0.13620
H1068       H  0.59547404  0.97171883  0.67644786     0.13620
H1069       H  0.58878176  0.03575501  0.66491329     0.13620
H1070       H  0.66932275  0.02959313  0.58133220     0.13620
C1071       C  0.51680702  0.85777563  0.61615463    -0.12520
C1072       C  0.53459271  0.86889986  0.64744611     0.09630
C1073       C  0.51693475  0.89018250  0.67314530    -0.12520
C1074       C  0.48016294  0.89399661  0.67119575    -0.12520
C1075       C  0.46160645  0.87606127  0.64384726     0.09630
C1076       C  0.47990395  0.86160544  0.61424305    -0.12520
H1077       H  0.53066857  0.84309383  0.59508554     0.13620
H1078       H  0.53068372  0.90049942  0.69671612     0.13620
H1079       H  0.46620052  0.90632927  0.69366002     0.13620
H1080       H  0.46547288  0.84914732  0.59213570     0.13620
C1081       C  0.72118301  0.22571798  0.46633289    -0.12450
C1082       C  0.71350500  0.21942375  0.43447700    -0.14000
C1083       C  0.59677966  0.16224061  0.48148408    -0.12520
C1084       C  0.62382607  0.14228919  0.46432682     0.09630
C1085       C  0.64192841  0.11470698  0.48251836    -0.12520
C1086       C  0.64024486  0.11401490  0.51951841    -0.12520
C1087       C  0.62077375  0.14111452  0.53703464     0.09630
C1088       C  0.59519953  0.16160575  0.51854519    -0.12520
H1089       H  0.58109225  0.18226682  0.46719382     0.13620
H1090       H  0.66115081  0.09745104  0.46889213     0.13620
H1091       H  0.65847015  0.09652310  0.53415743     0.13620
H1092       H  0.57871025  0.18143070  0.53222834     0.13620
C1093       C  0.72002064  0.78625566  0.43057749    -0.12450
C1094       C  0.72595127  0.77875721  0.46258553    -0.14000
C1095       C  0.66343363  0.89481674  0.48179419    -0.12520
C1096       C  0.64353545  0.86825928  0.46381743     0.09630
C1097       C  0.61440992  0.85136349  0.48074776    -0.12520
C1098       C  0.61162203  0.85367501  0.51763453    -0.12520
C1099       C  0.63853000  0.87222090  0.53649980     0.09630
C1100       C  0.66073655  0.89697818  0.51871258    -0.12520
H1101       H  0.68436460  0.91010695  0.46838468     0.13620
H1102       H  0.59690575  0.83292854  0.46637300     0.13620
H1103       H  0.59236268  0.83648483  0.53125277     0.13620
H1104       H  0.67992055  0.91356544  0.53318302     0.13620
C1105       C  0.60800978  0.98451064  0.34740458    -0.12520
C1106       C  0.63486890  0.96526917  0.36552324     0.09630
C1107       C  0.65468389  0.98151315  0.39323390    -0.12520
C1108       C  0.65483472  0.01859071  0.39565909    -0.12520
C1109       C  0.63528083  0.03817106  0.37015332     0.09630
C1110       C  0.60819836  0.02158080  0.34982208    -0.12520
H1111       H  0.59081505  0.97181220  0.32753832     0.13620
H1112       H  0.67372406  0.96628208  0.40927530     0.13620
H1113       H  0.67437931  0.03146061  0.41310770     0.13620
H1114       H  0.59123410  0.03699368  0.33175383     0.13620
C1115       C  0.34664180  0.10139788  0.47764018    -0.12520
C1116       C  0.36940795  0.12825526  0.46398297     0.09630
C1117       C  0.39705230  0.14261246  0.48507406    -0.12520
C1118       C  0.39463037  0.13859357  0.52188552    -0.12520
C1119       C  0.36481552  0.12027016  0.53598155     0.09630
C1120       C  0.34440726  0.09718420  0.51444176    -0.12520
H1121       H  0.32656936  0.08851346  0.46082433     0.13620
H1122       H  0.41608398  0.16192616  0.47424887     0.13620
H1123       H  0.41180820  0.15489845  0.53893748     0.13620
H1124       H  0.32241014  0.08149128  0.52550428     0.13620
C1125       C  0.48156253  0.14351290  0.39282173    -0.12520
C1126       C  0.46346068  0.12161628  0.36807866     0.09630
C1127       C  0.48235908  0.09672151  0.34708243    -0.12520
C1128       C  0.51894576  0.10169156  0.34268830    -0.12520
C1129       C  0.53545930  0.13090570  0.36001792     0.09630
C1130       C  0.51806994  0.14867347  0.38835441    -0.12520
H1131       H  0.46690024  0.16128401  0.41076984     0.13620
H1132       H  0.46850095  0.07831255  0.32915838     0.13620
H1133       H  0.53285879  0.08611599  0.32231276     0.13620
H1134       H  0.53146217  0.16949084  0.40385061     0.13620
C1135       C  0.38499636  0.86129685  0.47785132    -0.12520
C1136       C  0.35584689  0.87923974  0.46209150     0.09630
C1137       C  0.33408799  0.90230985  0.48230289    -0.12520
C1138       C  0.33501110  0.89922583  0.51926131    -0.12520
C1139       C  0.35770560  0.87324929  0.53466259     0.09630
C1140       C  0.38595042  0.85819997  0.51478644    -0.12520
H1141       H  0.40322715  0.84505749  0.46182989     0.13620
H1142       H  0.31256814  0.91770637  0.46997809     0.13620
H1143       H  0.31460754  0.91293918  0.53500723     0.13620
H1144       H  0.40509589  0.83975307  0.52682385     0.13620
C1145       C  0.48137320  0.88732613  0.35999903    -0.12520
C1146       C  0.46300681  0.85831700  0.37539781     0.09630
C1147       C  0.48109891  0.83212869  0.39541572    -0.12520
C1148       C  0.51803005  0.83032620  0.39288901    -0.12520
C1149       C  0.53593650  0.85497434  0.37067388     0.09630
C1150       C  0.51834747  0.88562097  0.35755628    -0.12520
H1151       H  0.46708213  0.90846007  0.34579519     0.13620
H1152       H  0.46680030  0.81014808  0.40825490     0.13620
H1153       H  0.53171527  0.80726679  0.40441886     0.13620
H1154       H  0.53250241  0.90588377  0.34203156     0.13620
C1155       C  0.34458306  0.97747123  0.39702895    -0.12520
C1156       C  0.36725123  0.96445964  0.36978739     0.09630
C1157       C  0.39479553  0.98597161  0.35587702    -0.12520
C1158       C  0.39249311  0.02273263  0.36104230    -0.12520
C1159       C  0.36277206  0.03640782  0.37985992     0.09630
C1160       C  0.34249749  0.01422117  0.40239413    -0.12520
H1161       H  0.32455239  0.96030495  0.40948919     0.13620
H1162       H  0.41368967  0.97563642  0.33617493     0.13620
H1163       H  0.40951936  0.04020878  0.34507200     0.13620
H1164       H  0.32056247  0.02489976  0.41843263     0.13620
C1165       C  0.43168106  0.78503191  0.28678594    -0.12450
C1166       C  0.46359349  0.77812866  0.27927266    -0.14000
C1167       C  0.46414607  0.72441510  0.22618495    -0.12450
C1168       C  0.43234663  0.71703050  0.21883652    -0.14000
C1169       C  0.53533291  0.77827978  0.27948002    -0.12450
C1170       C  0.56746393  0.78480782  0.28636930    -0.14000
C1171       C  0.53556360  0.72497598  0.22634180    -0.12450
C1172       C  0.56719327  0.71674447  0.21925956    -0.14000
C1173       C  0.27086569  0.77990529  0.46220568    -0.12450
C1174       C  0.27708396  0.78831813  0.43044761    -0.14000
C1175       C  0.27985479  0.78542144  0.56544111    -0.12450
C1176       C  0.27208657  0.77895670  0.53361173    -0.14000
C1177       C  0.21405428  0.71730440  0.43046482    -0.12450
C1178       C  0.22050788  0.72386388  0.46254217    -0.14000
C1179       C  0.21462710  0.71593951  0.56577651    -0.12450
C1180       C  0.22105400  0.72340779  0.53385892    -0.14000
C1181       C  0.46377173  0.72787197  0.77301386    -0.12450
C1182       C  0.43216541  0.71911467  0.77955088    -0.14000
C1183       C  0.43212371  0.78820571  0.71274881    -0.12450
C1184       C  0.46409340  0.78114067  0.71975707    -0.14000
C1185       C  0.53516263  0.72908277  0.77473827    -0.12450
C1186       C  0.56675035  0.72264048  0.78362661    -0.14000
C1187       C  0.53579839  0.78131888  0.72071006    -0.12450
C1188       C  0.56810504  0.78755144  0.71451437    -0.14000
C1189       C  0.27322155  0.03699487  0.27486382    -0.12450
C1190       C  0.28011555  0.06835807  0.28409062    -0.14000
C1191       C  0.28171721  0.93394504  0.27858488    -0.12450
C1192       C  0.27359405  0.96575611  0.27251701    -0.14000
C1193       C  0.27758436  0.27849719  0.03641136    -0.12450
C1194       C  0.28537473  0.28485378  0.06823490    -0.14000
C1195       C  0.27740722  0.27836547  0.96513360    -0.12450
C1196       C  0.28376044  0.28555517  0.93321635    -0.14000
C1197       C  0.27443819  0.46407745  0.22605750    -0.12450
C1198       C  0.28156986  0.43267544  0.21754178    -0.14000
C1199       C  0.22212534  0.46465743  0.28009674    -0.12450
C1200       C  0.21549643  0.43285445  0.28810517    -0.14000
C1201       C  0.27535725  0.53491901  0.22532771    -0.12450
C1202       C  0.28379970  0.56609785  0.21703174    -0.14000
C1203       C  0.22221888  0.53625973  0.27891127    -0.12450
C1204       C  0.21565810  0.56854257  0.28471470    -0.14000
C1205       C  0.27619241  0.22310412  0.46481826    -0.12450
C1206       C  0.28392734  0.21712403  0.43294068    -0.14000
C1207       C  0.22192082  0.27481461  0.46495051    -0.12450
C1208       C  0.21347658  0.28067143  0.43321077    -0.14000
C1209       C  0.28298064  0.21418313  0.56767275    -0.12450
C1210       C  0.27608362  0.22243793  0.53608855    -0.14000
C1211       C  0.22352465  0.27638458  0.53618756    -0.12450
C1212       C  0.21744290  0.28493001  0.56784369    -0.14000
C1213       C  0.43108269  0.28412771  0.22010885    -0.12450
C1214       C  0.46300228  0.27637450  0.22619867    -0.14000
C1215       C  0.46458812  0.22172231  0.27769527    -0.12450
C1216       C  0.43312585  0.21299143  0.28453433    -0.14000
C1217       C  0.53437432  0.27695454  0.22486997    -0.12450
C1218       C  0.56600921  0.28379505  0.21664714    -0.14000
C1219       C  0.53584568  0.22314195  0.27722122    -0.12450
C1220       C  0.56798730  0.21635852  0.28323589    -0.14000
C1221       C  0.03406612  0.22413329  0.22335371    -0.12450
C1222       C  0.06572017  0.21623792  0.21666887    -0.14000
C1223       C  0.21620900  0.07056340  0.21253886    -0.12450
C1224       C  0.22198631  0.03848697  0.21986391    -0.14000
C1225       C  0.21402896  0.22207506  0.06818024    -0.12450
C1226       C  0.22239504  0.22767553  0.03644255    -0.14000
C1227       C  0.21650243  0.21647549  0.93408802    -0.12450
C1228       C  0.22354219  0.22559854  0.96539381    -0.14000
C1229       C  0.15211395  0.09876919  0.98785332    -0.12520
C1230       C  0.13194632  0.12144628  0.96571636     0.09630
C1231       C  0.10254353  0.14071226  0.97945815    -0.12520
C1232       C  0.10052507  0.14608146  0.01615006    -0.12520
C1233       C  0.12803272  0.13193054  0.03753109     0.09630
C1234       C  0.15035263  0.10437516  0.02451749    -0.12520
H1235       H  0.17380654  0.08241741  0.97713487     0.13620
H1236       H  0.08559404  0.15681122  0.96202464     0.13620
H1237       H  0.08188798  0.16603875  0.02650045     0.13620
H1238       H  0.17035823  0.09176004  0.04157344     0.13620
C1239       C  0.96306143  0.22400209  0.22273316    -0.12450
C1240       C  0.93126718  0.21727056  0.21534531    -0.14000
C1241       C  0.98251373  0.15198567  0.10769224    -0.12520
C1242       C  0.96362741  0.13489089  0.13546815     0.09630
C1243       C  0.97906388  0.10568491  0.15383947    -0.12520
C1244       C  0.01581282  0.10055022  0.15155776    -0.12520
C1245       C  0.03585365  0.12523961  0.13150242     0.09630
C1246       C  0.01922897  0.14672393  0.10541542    -0.12520
H1247       H  0.97024128  0.17281361  0.09136006     0.13620
H1248       H  0.96393565  0.09021904  0.17340838     0.13620
H1249       H  0.02863611  0.08229721  0.17036921     0.13620
H1250       H  0.03493708  0.16426954  0.08816754     0.13620
C1251       C  0.97637608  0.14650007  0.89985288    -0.12520
C1252       C  0.96275727  0.12530728  0.87175279     0.09630
C1253       C  0.98404813  0.09881916  0.85560469    -0.12520
C1254       C  0.02093892  0.10106600  0.85989352    -0.12520
C1255       C  0.03498893  0.12955530  0.88027555     0.09630
C1256       C  0.01323122  0.14843857  0.90443317    -0.12520
H1257       H  0.95945485  0.16576186  0.91378823     0.13620
H1258       H  0.97327397  0.08111490  0.83504674     0.13620
H1259       H  0.03812512  0.08511177  0.84252249     0.13620
H1260       H  0.02420133  0.16942144  0.92152482     0.13620
C1261       C  0.85093784  0.10754201  0.97918847    -0.12520
C1262       C  0.87420512  0.13295871  0.96384159     0.09630
C1263       C  0.90103836  0.14933306  0.98447848    -0.12520
C1264       C  0.89703725  0.14920993  0.02138700    -0.12520
C1265       C  0.86650775  0.13252448  0.03620309     0.09630
C1266       C  0.84676782  0.10752646  0.01605946    -0.12520
H1267       H  0.83161948  0.09292842  0.96288767     0.13620
H1268       H  0.92056400  0.16745070  0.97254672     0.13620
H1269       H  0.91431226  0.16646789  0.03739606     0.13620
H1270       H  0.82464696  0.09245301  0.02769205     0.13620
C1271       C  0.89570677  0.98177989  0.15050373    -0.12520
C1272       C  0.87091541  0.96525277  0.12740096     0.09630
C1273       C  0.85311123  0.98528858  0.10104843    -0.12520
C1274       C  0.85092909  0.02211110  0.10570323    -0.12520
C1275       C  0.86715348  0.03753775  0.13615142     0.09630
C1276       C  0.89349718  0.01857807  0.15529980    -0.12520
H1277       H  0.91145123  0.96605691  0.16938517     0.13620
H1278       H  0.83554652  0.97253919  0.08152677     0.13620
H1279       H  0.83269559  0.03733624  0.08875468     0.13620
H1280       H  0.90831283  0.03085654  0.17723052     0.13620
C1281       C  0.22078706  0.96701415  0.21899394    -0.12450
C1282       C  0.21367043  0.93507356  0.21207672    -0.14000
C1283       C  0.01918392  0.89885136  0.14204373    -0.12520
C1284       C  0.03448413  0.86803343  0.12629397     0.09630
C1285       C  0.01349276  0.84532638  0.10479143    -0.12520
C1286       C  0.97655898  0.84686611  0.10856009    -0.12520
C1287       C  0.96200051  0.87101174  0.13365883     0.09630
C1288       C  0.98221614  0.90025606  0.14600074    -0.12520
H1289       H  0.03552083  0.91828528  0.15647230     0.13620
H1290       H  0.02518514  0.82283906  0.09030293     0.13620
H1291       H  0.96036245  0.82561665  0.09677805     0.13620
H1292       H  0.97064641  0.92045850  0.16361005     0.13620
C1293       C  0.11181687  0.98540765  0.14198357    -0.12520
C1294       C  0.14024250  0.96618945  0.12633514     0.09630
C1295       C  0.16201675  0.98229236  0.09999822    -0.12520
C1296       C  0.16205286  0.01932592  0.09716882    -0.12520
C1297       C  0.14038984  0.03889235  0.12083780     0.09630
C1298       C  0.11182619  0.02240138  0.13903828    -0.12520
H1299       H  0.09303518  0.97278653  0.16040042     0.13620
H1300       H  0.18243634  0.96717334  0.08562892     0.13620
H1301       H  0.18302023  0.03223457  0.08150356     0.13620
H1302       H  0.09351220  0.03793195  0.15565991     0.13620
C1303       C  0.84104504  0.98062808  0.90175639    -0.12520
C1304       C  0.86085395  0.96373287  0.87440846     0.09630
C1305       C  0.88854656  0.98221389  0.85669282    -0.12520
C1306       C  0.88946540  0.01926255  0.85907657    -0.12520
C1307       C  0.86250102  0.03660741  0.87884283     0.09630
C1308       C  0.84199091  0.01773115  0.90409770    -0.12520
H1309       H  0.82108081  0.96615662  0.91735250     0.13620
H1310       H  0.90584459  0.96888888  0.83732268     0.13620
H1311       H  0.90699528  0.03417733  0.84112260     0.13620
H1312       H  0.82232958  0.03126812  0.92090053     0.13620
C1313       C  0.89094484  0.82561748  0.98224022    -0.12520
C1314       C  0.86694041  0.84962230  0.96567937     0.09630
C1315       C  0.85630171  0.88139427  0.98291156    -0.12520
C1316       C  0.86343341  0.88515976  0.01907446    -0.12520
C1317       C  0.87991544  0.85648769  0.03709478     0.09630
C1318       C  0.89797017  0.82943352  0.01833766    -0.12520
H1319       H  0.90099630  0.80187090  0.96855116     0.13620
H1320       H  0.83974983  0.90134751  0.96949320     0.13620
H1321       H  0.85087159  0.90704453  0.03379321     0.13620
H1322       H  0.91185868  0.80783639  0.03223601     0.13620
C1323       C  0.01396584  0.90163034  0.85711289    -0.12520
C1324       C  0.03397903  0.87365824  0.87227004     0.09630
C1325       C  0.01749783  0.84859799  0.89514437    -0.12520
C1326       C  0.98066342  0.84416277  0.89283568    -0.12520
C1327       C  0.96154888  0.86575034  0.86860941     0.09630
C1328       C  0.97705286  0.89755424  0.85515732    -0.12520
H1329       H  0.02664898  0.92248182  0.84113385     0.13620
H1330       H  0.03320481  0.82832523  0.90909665     0.13620
H1331       H  0.96835121  0.82107028  0.90575160     0.13620
H1332       H  0.96188436  0.91620326  0.83862446     0.13620
C1333       C  0.10067489  0.97821183  0.86111332    -0.12520
C1334       C  0.12977074  0.96429857  0.88070492     0.09630
C1335       C  0.14905143  0.98610217  0.90449279    -0.12520
C1336       C  0.14661818  0.02297502  0.90022417    -0.12520
C1337       C  0.12469761  0.03654058  0.87266772     0.09630
C1338       C  0.09804311  0.01508923  0.85702924    -0.12520
H1339       H  0.08445490  0.96099009  0.84403795     0.13620
H1340       H  0.17050976  0.97522424  0.92101887     0.13620
H1341       H  0.16596756  0.04001629  0.91389491     0.13620
H1342       H  0.07979515  0.02577095  0.83692434     0.13620
C1343       C  0.09609293  0.85588990  0.98431139    -0.12520
C1344       C  0.12234312  0.87248755  0.96318436     0.09630
C1345       C  0.14676996  0.89668367  0.97877469    -0.12520
C1346       C  0.15412617  0.89301539  0.01498649    -0.12520
C1347       C  0.13532342  0.86671047  0.03433902     0.09630
C1348       C  0.10307238  0.85238283  0.02060788    -0.12520
H1349       H  0.07523493  0.83926997  0.97240394     0.13620
H1350       H  0.16539489  0.91197386  0.96232750     0.13620
H1351       H  0.17734233  0.90672550  0.02618684     0.13620
H1352       H  0.08621633  0.83455594  0.03640768     0.13620
C1353       C  0.03540566  0.77711682  0.77587003    -0.12450
C1354       C  0.06697866  0.78529056  0.78299975    -0.14000
C1355       C  0.96416212  0.77856454  0.77612238    -0.12450
C1356       C  0.93232081  0.78638107  0.78247159    -0.14000
C1357       C  0.03385721  0.72389670  0.72233973    -0.12450
C1358       C  0.06536924  0.71623237  0.71449821    -0.14000
C1359       C  0.96271467  0.72567426  0.72280380    -0.12450
C1360       C  0.93077742  0.71983485  0.71508237    -0.14000
C1361       C  0.77565288  0.03732004  0.77771378    -0.12450
C1362       C  0.78233413  0.06896427  0.78605835    -0.14000
C1363       C  0.78301519  0.93449254  0.78606566    -0.12450
C1364       C  0.77638590  0.96620557  0.77827350    -0.14000
C1365       C  0.72459322  0.03602713  0.72252269    -0.12450
C1366       C  0.71748496  0.06760919  0.71453718    -0.14000
C1367       C  0.72559090  0.96467828  0.72272216    -0.12450
C1368       C  0.71932085  0.93251234  0.71594602    -0.14000
C1369       C  0.77878654  0.77865991  0.03536266    -0.12450
C1370       C  0.78639321  0.78524428  0.06725798    -0.14000
C1371       C  0.77876625  0.77772342  0.96353794    -0.12450
C1372       C  0.78522013  0.78313871  0.93110003    -0.14000
C1373       C  0.71406673  0.72001539  0.06699566    -0.12450
C1374       C  0.72302502  0.72765556  0.03574915    -0.14000
C1375       C  0.71603845  0.71914699  0.93315967    -0.12450
C1376       C  0.72320464  0.72724556  0.96467914    -0.14000
C1377       C  0.21509051  0.78232840  0.06766561    -0.12450
C1378       C  0.22284738  0.77518708  0.03597819    -0.14000
C1379       C  0.22342350  0.77506060  0.96483909    -0.12450
C1380       C  0.21483988  0.78210680  0.93339554    -0.14000
C1381       C  0.27842531  0.72393321  0.03643186    -0.12450
C1382       C  0.28512021  0.71676149  0.06837572    -0.14000
C1383       C  0.28743891  0.71753524  0.93334332    -0.12450
C1384       C  0.27908308  0.72423034  0.96500270    -0.14000
C1385       C  0.78422052  0.21724195  0.06579876    -0.12450
C1386       C  0.77692942  0.22493329  0.03426691    -0.14000
C1387       C  0.77615650  0.22713270  0.96336995    -0.12450
C1388       C  0.78465774  0.22084242  0.93176424    -0.14000
C1389       C  0.71622433  0.28487237  0.06872447    -0.12450
C1390       C  0.72276793  0.27715876  0.03694699    -0.14000
C1391       C  0.72151314  0.27903449  0.96593296    -0.12450
C1392       C  0.71419355  0.28682571  0.93440764    -0.14000
C1393       C  0.78231897  0.06979585  0.21549634    -0.12450
C1394       C  0.77504807  0.03809622  0.22285888    -0.14000
C1395       C  0.77455140  0.96711938  0.22289520    -0.12450
C1396       C  0.78126007  0.93551674  0.21479414    -0.14000
C1397       C  0.71775393  0.07007591  0.28639308    -0.12450
C1398       C  0.72386560  0.03831149  0.27821820    -0.14000
C1399       C  0.71519255  0.93510284  0.28317594    -0.12450
C1400       C  0.72262698  0.96708096  0.27711185    -0.14000
C1401       C  0.06338540  0.78644709  0.21511323    -0.12450
C1402       C  0.03206386  0.77851722  0.22348086    -0.14000
C1403       C  0.96089797  0.77798856  0.22626742    -0.12450
C1404       C  0.92890378  0.78592792  0.22105089    -0.14000
C1405       C  0.06544481  0.71580659  0.28268713    -0.12450
C1406       C  0.03391176  0.72363579  0.27555569    -0.14000
C1407       C  0.93189076  0.71547876  0.28520605    -0.12450
C1408       C  0.96330834  0.72304531  0.27735289    -0.14000
C1409       C  0.22240474  0.03694053  0.77700142    -0.12450
C1410       C  0.21386977  0.06854529  0.78367432    -0.14000
C1411       C  0.22248499  0.96576285  0.77861354    -0.12450
C1412       C  0.21561661  0.93432805  0.78738157    -0.14000
C1413       C  0.28551259  0.06703393  0.71820596    -0.12450
C1414       C  0.27651031  0.03553942  0.72469507    -0.14000
C1415       C  0.27938953  0.93187933  0.71655656    -0.12450
C1416       C  0.27414930  0.96407825  0.72405513    -0.14000
C1417       C  0.03475511  0.22647075  0.77768124    -0.12450
C1418       C  0.06588191  0.21910939  0.78711579    -0.14000
C1419       C  0.96384387  0.22518075  0.77630698    -0.12450
C1420       C  0.93236633  0.21651612  0.78286760    -0.14000
C1421       C  0.03461755  0.27743830  0.72204661    -0.12450
C1422       C  0.06619620  0.28409702  0.71353949    -0.14000
C1423       C  0.93117571  0.28348468  0.71509986    -0.12450
C1424       C  0.96321174  0.27731236  0.72239574    -0.14000
loop_ 
_geom_bond_atom_site_label_1 
_geom_bond_atom_site_label_2 
_geom_bond_distance 
_geom_bond_site_symmetry_2 
_ccdc_geom_bond_type 
C1            C2   1.369       .  D
C1         C1417   1.500   1_655  S
C1         C1419   1.496       .  S
C2         C1421   1.500   1_655  S
C2         C1424   1.504       .  S
C3            C4   1.370       .  D
C3         C1414   1.501       .  S
C3         C1416   1.506   1_545  S
C4         C1409   1.503       .  S
C4         C1411   1.499   1_545  S
C5            C6   1.369       .  D
C5         C1406   1.494   1_655  S
C5         C1408   1.494       .  S
C6         C1402   1.501   1_655  S
C6         C1403   1.501       .  S
C7            C8   1.369       .  D
C7         C1398   1.499       .  S
C7         C1400   1.501   1_545  S
C8         C1394   1.499       .  S
C8         C1395   1.496   1_545  S
C9           C10   1.369   1_554  D
C9         C1390   1.502       .  S
C9         C1391   1.498   1_554  S
C10        C1386   1.497   1_556  S
C10        C1387   1.501       .  S
C11          C12   1.372       .  D
C11        C1381   1.506       .  S
C11        C1384   1.506   1_554  S
C12        C1378   1.505       .  S
C12        C1379   1.502   1_554  S
C13          C14   1.372   1_556  D
C13        C1369   1.507   1_556  S
C13        C1371   1.512       .  S
C14        C1374   1.505       .  S
C14        C1376   1.500   1_554  S
C15          C16   1.370       .  D
C15        C1365   1.498       .  S
C15        C1367   1.506   1_545  S
C16        C1361   1.502       .  S
C16        C1364   1.497   1_545  S
C17          C18   1.370       .  D
C17        C1353   1.501   1_655  S
C17        C1355   1.502       .  S
C18        C1357   1.500   1_655  S
C18        C1359   1.500       .  S
Fe19         O35   2.017       .  S
Fe19         O25   2.019       .  S
Fe19         O32   2.132       .  S
Fe19         O24   2.067       .  S
Fe19         O30   1.962       .  S
Fe20         O23   2.012       .  S
Fe20         O27   2.021       .  S
Fe20         O31   2.066       .  S
Fe20         O36   2.132       .  S
Fe20         O30   1.960       .  S
Fe21         O39   2.026       .  S
Fe21         O26   2.063       .  S
Fe21         O33   2.019       .  S
Fe21         O22   2.132       .  S
Fe21         O30   1.955       .  S
O22          C29   1.286       .  A
O23          C37   1.252       .  A
O24          C29   1.288       .  A
O25          C28   1.258       .  A
O26          C38   1.285       .  A
O27          C40   1.261       .  A
C28          O33   1.253       .  A
C28        C1324   1.437       .  S
C29        C1354   1.488       .  S
O31          C34   1.287       .  A
O32          C34   1.285       .  A
C34        C1380   1.489       .  S
O35          C40   1.253       .  A
O36          C38   1.286       .  A
C37          O39   1.261       .  A
C37        C1334   1.434       .  S
C38        C1412   1.486       .  S
C40        C1344   1.439       .  S
Fe41         O57   2.113       .  S
Fe41         O47   2.069       .  S
Fe41         O54   1.996       .  S
Fe41         O46   2.022       .  S
Fe41         O52   1.992       .  S
Fe42         O45   2.103       .  S
Fe42         O49   2.067       .  S
Fe42         O53   2.019       .  S
Fe42         O58   1.994       .  S
Fe42         O52   1.989       .  S
Fe43         O61   2.068       .  S
Fe43         O48   2.030       .  S
Fe43         O55   2.109       .  S
Fe43         O44   1.974       .  S
Fe43         O52   1.998       .  S
O44          C51   1.250       .  A
O45          C59   1.277       .  A
O46          C51   1.261       .  A
O47          C50   1.278       .  A
O48          C60   1.263       .  A
O49          C62   1.280       .  A
C50          O55   1.282       .  A
C50        C1372   1.502       .  S
C51        C1314   1.429       .  S
O53          C56   1.259       .  A
O54          C56   1.252       .  A
C56        C1304   1.440       .  S
O57          C62   1.282       .  A
O58          C60   1.255       .  A
C59          O61   1.279       .  A
C59        C1356   1.491       .  S
C60        C1327   1.443       .  S
C62        C1363   1.486       .  S
Fe63         O79   2.089       .  S
Fe63         O69   2.087       .  S
Fe63         O76   2.003       .  S
Fe63         O68   2.009       .  S
Fe63         O74   1.990       .  S
Fe64         O67   2.085       .  S
Fe64         O71   2.095       .  S
Fe64         O75   2.015       .  S
Fe64         O80   1.998       .  S
Fe64         O74   1.996       .  S
Fe65         O83   2.087       .  S
Fe65         O70   2.011       .  S
Fe65         O77   2.090       .  S
Fe65         O66   1.997       .  S
Fe65         O74   2.001       .  S
O66          C73   1.255       .  A
O67          C81   1.280       .  A
O68          C73   1.257       .  A
O69          C72   1.278       .  A
O70          C82   1.258       .  A
O71          C84   1.281       .  A
C72          O77   1.281       .  A
C72        C1282   1.493       .  S
C73        C1294   1.439       .  S
O75          C78   1.257       .  A
O76          C78   1.256       .  A
C78        C1284   1.443       .  S
O79          C84   1.280       .  A
O80          C82   1.256       .  A
C81          O83   1.278       .  A
C81        C1377   1.494       .  S
C82        C1347   1.440       .  S
C84        C1401   1.489       .  S
Fe85        O101   2.016       .  S
Fe85         O91   2.023       .  S
Fe85         O98   2.128       .  S
Fe85         O90   2.062       .  S
Fe85         O96   1.969       .  S
Fe86         O89   1.995       .  S
Fe86         O93   2.022       .  S
Fe86         O97   2.057       .  S
Fe86        O102   2.135       .  S
Fe86         O96   1.964       .  S
Fe87        O105   2.018       .  S
Fe87         O92   2.063       .  S
Fe87         O99   2.007       .  S
Fe87         O88   2.127       .  S
Fe87         O96   1.959       .  S
O88          C95   1.285       .  A
O89         C103   1.251       .  A
O90          C95   1.285       .  A
O91          C94   1.260       .  A
O92         C104   1.285       .  A
O93         C106   1.259       .  A
C94          O99   1.251       .  A
C94        C1272   1.436       .  S
C95        C1396   1.483       .  S
O97         C100   1.284       .  A
O98         C100   1.282       .  A
C100       C1404   1.489       .  S
O101        C106   1.254       .  A
O102        C104   1.285       .  A
C103        O105   1.262       .  A
C103       C1317   1.424       .  S
C104       C1370   1.495       .  S
C106       C1287   1.437       .  S
Fe107       O123   2.012       .  S
Fe107       O113   2.028       .  S
Fe107       O120   2.131       .  S
Fe107       O112   2.059       .  S
Fe107       O118   1.961       .  S
Fe108       O111   2.003       .  S
Fe108       O115   2.026       .  S
Fe108       O119   2.062       .  S
Fe108       O124   2.132       .  S
Fe108       O118   1.958       .  S
Fe109       O127   2.028       .  S
Fe109       O114   2.061       .  S
Fe109       O121   2.011       .  S
Fe109       O110   2.131       .  S
Fe109       O118   1.959       .  S
O110        C117   1.285       .  A
O111        C125   1.252       .  A
O112        C117   1.285       .  A
O113        C116   1.261       .  A
O114        C126   1.285       .  A
O115        C128   1.261       .  A
C116        O121   1.252       .  A
C116       C1252   1.435       .  S
C117       C1420   1.483       .  S
O119        C122   1.285       .  A
O120        C122   1.284       .  A
C122       C1388   1.487       .  S
O123        C128   1.253       .  A
O124        C126   1.285       .  A
C125        O127   1.263       .  A
C125       C1307   1.433       .  S
C126       C1362   1.489       .  S
C128       C1262   1.435       .  S
Fe129       O145   2.074       .  S
Fe129       O135   2.094       .  S
Fe129       O142   2.008       .  S
Fe129       O134   2.008       .  S
Fe129       O140   1.995       .  S
Fe130       O133   2.075       .  S
Fe130       O137   2.092       .  S
Fe130       O141   2.008       .  S
Fe130       O146   2.007       .  S
Fe130       O140   1.992       .  S
Fe131       O149   2.095       .  S
Fe131       O136   2.010       .  S
Fe131       O143   2.075       .  S
Fe131       O132   2.006       .  S
Fe131       O140   1.994       .  S
O132        C139   1.258       .  A
O133        C147   1.279       .  A
O134        C139   1.256       .  A
O135        C138   1.278       .  A
O136        C148   1.256       .  A
O137        C150   1.277       .  A
C138        O143   1.279       .  A
C138       C1393   1.487       .  S
C139       C1275   1.440       .  S
O141        C144   1.256       .  A
O142        C144   1.257       .  A
C144       C1242   1.441       .  S
O145        C150   1.279       .  A
O146        C148   1.258       .  A
C147        O149   1.278       .  A
C147       C1385   1.485       .  S
C148       C1265   1.441       .  S
C150       C1240   1.486       .  S
Fe151       O167   2.013       .  S
Fe151       O157   2.031       .  S
Fe151       O164   2.133       .  S
Fe151       O156   2.066       .  S
Fe151       O162   1.960       .  S
Fe152       O155   2.009       .  S
Fe152       O159   2.027       .  S
Fe152       O163   2.064       .  S
Fe152       O168   2.137       .  S
Fe152       O162   1.961       .  S
Fe153       O171   2.030       .  S
Fe153       O158   2.063       .  S
Fe153       O165   2.008       .  S
Fe153       O154   2.134       .  S
Fe153       O162   1.958       .  S
O154        C161   1.286       .  A
O155        C169   1.251       .  A
O156        C161   1.285       .  A
O157        C160   1.262       .  A
O158        C170   1.285       .  A
O159        C172   1.261       .  A
C160        O165   1.251       .  A
C160       C1255   1.434       .  S
C161       C1418   1.486       .  S
O163        C166   1.286       .  A
O164        C166   1.285       .  A
C166       C1410   1.489       .  S
O167        C172   1.253       .  A
O168        C170   1.286       .  A
C169        O171   1.262       .  A
C169       C1230   1.434       .  S
C170       C1227   1.489       .  S
C172       C1337   1.435       .  S
Fe173       O189   2.057       .  S
Fe173       O179   2.132       .  S
Fe173       O186   2.027       .  S
Fe173       O178   2.000       .  S
Fe173       O184   1.965       .  S
Fe174       O177   2.061       .  S
Fe174       O181   2.127       .  S
Fe174       O185   2.010       .  S
Fe174       O190   2.026       .  S
Fe174       O184   1.966       .  S
Fe175       O193   2.128       .  S
Fe175       O180   2.006       .  S
Fe175       O187   2.057       .  S
Fe175       O176   2.022       .  S
Fe175       O184   1.960       .  S
O176        C183   1.261       .  A
O177        C191   1.284       .  A
O178        C183   1.251       .  A
O179        C182   1.284       .  A
O180        C192   1.251       .  A
O181        C194   1.282       .  A
C182        O187   1.283       .  A
C182       C1223   1.491       .  S
C183       C1297   1.430       .  S
O185        C188   1.253       .  A
O186        C188   1.261       .  A
C188       C1233   1.435       .  S
O189        C194   1.284       .  A
O190        C192   1.262       .  A
C191        O193   1.285       .  A
C191       C1222   1.483       .  S
C192       C1245   1.434       .  S
C194       C1225   1.486       .  S
C195        C196   1.369       .  D
C195       C1215   1.500       .  S
C195       C1219   1.502       .  S
C196       C1214   1.503       .  S
C196       C1217   1.502       .  S
C197        C198   1.369       .  D
C197       C1207   1.503       .  S
C197       C1211   1.501       .  S
C198       C1205   1.501       .  S
C198       C1210   1.503       .  S
C199        C200   1.371       .  D
C199       C1197   1.497       .  S
C199       C1201   1.500       .  S
C200       C1199   1.506       .  S
C200       C1203   1.504       .  S
C201        C202   1.369       .  D
C201       C1226   1.499       .  S
C201       C1228   1.502   1_554  S
C202       C1193   1.503       .  S
C202       C1195   1.500   1_554  S
C203        C204   1.370       .  D
C203       C1224   1.502       .  S
C203       C1281   1.504   1_545  S
C204       C1189   1.503       .  S
C204       C1192   1.502   1_545  S
C205        C206   1.372       .  D
C205       C1181   1.505       .  S
C205       C1185   1.505       .  S
C206       C1184   1.507       .  S
C206       C1187   1.507       .  S
C207        C208   1.373       .  D
C207       C1178   1.502       .  S
C207       C1180   1.506       .  S
C208       C1173   1.508       .  S
C208       C1176   1.504       .  S
C209        C210   1.373       .  D
C209       C1167   1.506       .  S
C209       C1171   1.505       .  S
C210       C1166   1.508       .  S
C210       C1169   1.508       .  S
Fe211       O227   2.000       .  S
Fe211       O217   2.023       .  S
Fe211       O224   2.132       .  S
Fe211       O216   2.061       .  S
Fe211       O222   1.973       .  S
Fe212       O215   1.990       .  S
Fe212       O219   2.030       .  S
Fe212       O223   2.060       .  S
Fe212       O228   2.136       .  S
Fe212       O222   1.964       .  S
Fe213       O231   2.024       .  S
Fe213       O218   2.066       .  S
Fe213       O225   2.010       .  S
Fe213       O214   2.132       .  S
Fe213       O222   1.970       .  S
O214        C221   1.285       .  A
O215        C229   1.250       .  A
O216        C221   1.286       .  A
O217        C220   1.259       .  A
O218        C230   1.285       .  A
O219        C232   1.264       .  A
C220        O225   1.252       .  A
C220       C1156   1.435       .  S
C221       C1191   1.489       .  S
O223        C226   1.283       .  A
O224        C226   1.283       .  A
C226       C1174   1.496       .  S
O227        C232   1.253       .  A
O228        C230   1.287       .  A
C229        O231   1.261       .  A
C229       C1146   1.424       .  S
C230       C1165   1.497       .  S
C232       C1136   1.431       .  S
Fe233       O249   2.010       .  S
Fe233       O239   2.028       .  S
Fe233       O246   2.127       .  S
Fe233       O238   2.064       .  S
Fe233       O244   1.964       .  S
Fe234       O237   2.008       .  S
Fe234       O241   2.022       .  S
Fe234       O245   2.061       .  S
Fe234       O250   2.136       .  S
Fe234       O244   1.966       .  S
Fe235       O253   2.027       .  S
Fe235       O240   2.061       .  S
Fe235       O247   2.006       .  S
Fe235       O236   2.132       .  S
Fe235       O244   1.956       .  S
O236        C243   1.285       .  A
O237        C251   1.251       .  A
O238        C243   1.285       .  A
O239        C242   1.263       .  A
O240        C252   1.285       .  A
O241        C254   1.260       .  A
C242        O247   1.252       .  A
C242       C1126   1.435       .  S
C243       C1216   1.486       .  S
O245        C248   1.286       .  A
O246        C248   1.283       .  A
C248       C1206   1.489       .  S
O249        C254   1.253       .  A
O250        C252   1.286       .  A
C251        O253   1.261       .  A
C251       C1159   1.434       .  S
C252       C1190   1.489       .  S
C254       C1116   1.434       .  S
Fe255       O271   2.023       .  S
Fe255       O261   1.986       .  S
Fe255       O268   2.067       .  S
Fe255       O260   2.113       .  S
Fe255       O266   1.992       .  S
Fe256       O259   2.016       .  S
Fe256       O263   1.993       .  S
Fe256       O267   2.106       .  S
Fe256       O272   2.067       .  S
Fe256       O266   1.996       .  S
Fe257       O275   2.002       .  S
Fe257       O262   2.110       .  S
Fe257       O269   2.017       .  S
Fe257       O258   2.073       .  S
Fe257       O266   1.989       .  S
O258        C265   1.281       .  A
O259        C273   1.259       .  A
O260        C265   1.283       .  A
O261        C264   1.251       .  A
O262        C274   1.280       .  A
O263        C276   1.254       .  A
C264        O269   1.259       .  A
C264       C1149   1.431       .  S
C265       C1170   1.497       .  S
O267        C270   1.278       .  A
O268        C270   1.278       .  A
C270       C1093   1.495       .  S
O271        C276   1.262       .  A
O272        C274   1.281       .  A
C273        O275   1.254       .  A
C273       C1106   1.438       .  S
C274       C1399   1.490       .  S
C276       C1096   1.437       .  S
Fe277       O293   2.023       .  S
Fe277       O283   1.995       .  S
Fe277       O290   2.060       .  S
Fe277       O282   2.115       .  S
Fe277       O288   1.981       .  S
Fe278       O281   2.023       .  S
Fe278       O285   2.000       .  S
Fe278       O289   2.119       .  S
Fe278       O294   2.061       .  S
Fe278       O288   1.978       .  S
Fe279       O297   1.993       .  S
Fe279       O284   2.124       .  S
Fe279       O291   2.026       .  S
Fe279       O280   2.059       .  S
Fe279       O288   1.980       .  S
O280        C287   1.281       .  A
O281        C295   1.261       .  A
O282        C287   1.279       .  A
O283        C286   1.253       .  A
O284        C296   1.283       .  A
O285        C298   1.253       .  A
C286        O291   1.262       .  A
C286       C1129   1.437       .  S
C287       C1220   1.491       .  S
O289        C292   1.281       .  A
O290        C292   1.281       .  A
C292       C1397   1.487       .  S
O293        C298   1.262       .  A
O294        C296   1.282       .  A
C295        O297   1.252       .  A
C295       C1084   1.435       .  S
C296       C1082   1.491       .  S
C298       C1109   1.435       .  S
Fe299       O315   2.020       .  S
Fe299       O305   1.988       .  S
Fe299       O312   2.085       .  S
Fe299       O304   2.094       .  S
Fe299       O310   1.999       .  S
Fe300       O303   2.009       .  S
Fe300       O307   1.996       .  S
Fe300       O311   2.081       .  S
Fe300       O316   2.087       .  S
Fe300       O310   2.000       .  S
Fe301       O319   2.005       .  S
Fe301       O306   2.092       .  S
Fe301       O313   2.016       .  S
Fe301       O302   2.086       .  S
Fe301       O310   1.994       .  S
O302        C309   1.279       .  A
O303        C317   1.258       .  A
O304        C309   1.283       .  A
O305        C308   1.252       .  A
O306        C318   1.279       .  A
O307        C320   1.256       .  A
C308        O313   1.257       .  A
C308       C1072   1.435       .  S
C309       C1188   1.496       .  S
O311        C314   1.278       .  A
O312        C314   1.276       .  A
C314       C1368   1.495       .  S
O315        C320   1.260       .  A
O316        C318   1.280       .  A
C317        O319   1.257       .  A
C317       C1099   1.441       .  S
C318       C1059   1.488       .  S
C320       C1062   1.441       .  S
Fe321       O337   2.011       .  S
Fe321       O327   2.022       .  S
Fe321       O334   2.128       .  S
Fe321       O326   2.060       .  S
Fe321       O332   1.960       .  S
Fe322       O325   2.009       .  S
Fe322       O329   2.024       .  S
Fe322       O333   2.064       .  S
Fe322       O338   2.130       .  S
Fe322       O332   1.965       .  S
Fe323       O341   2.028       .  S
Fe323       O328   2.060       .  S
Fe323       O335   2.002       .  S
Fe323       O324   2.134       .  S
Fe323       O332   1.963       .  S
O324        C331   1.285       .  A
O325        C339   1.253       .  A
O326        C331   1.284       .  A
O327        C330   1.261       .  A
O328        C340   1.284       .  A
O329        C342   1.261       .  A
C330        O335   1.252       .  A
C330       C1087   1.431       .  S
C331       C1046   1.490       .  S
O333        C336   1.286       .  A
O334        C336   1.284       .  A
C336       C1366   1.485       .  S
O337        C342   1.253       .  A
O338        C340   1.283       .  A
C339        O341   1.261       .  A
C339       C1050   1.435       .  S
C340       C1048   1.489       .  S
C342       C1065   1.436       .  S
Fe343       O359   2.004       .  S
Fe343       O349   2.025       .  S
Fe343       O356   2.133       .  S
Fe343       O348   2.062       .  S
Fe343       O354   1.963       .  S
Fe344       O347   2.009       .  S
Fe344       O351   2.028       .  S
Fe344       O355   2.062       .  S
Fe344       O360   2.139       .  S
Fe344       O354   1.956       .  S
Fe345       O363   2.028       .  S
Fe345       O350   2.067       .  S
Fe345       O357   2.015       .  S
Fe345       O346   2.133       .  S
Fe345       O354   1.960       .  S
O346        C353   1.284       .  A
O347        C361   1.251       .  A
O348        C353   1.286       .  A
O349        C352   1.262       .  A
O350        C362   1.286       .  A
O351        C364   1.262       .  A
C352        O357   1.253       .  A
C352       C1036   1.436       .  S
C353       C1413   1.488       .  S
O355        C358   1.285       .  A
O356        C358   1.285       .  A
C358       C1209   1.491       .  S
O359        C364   1.251       .  A
O360        C362   1.288       .  A
C361        O363   1.261       .  A
C361       C1053   1.434       .  S
C362       C1033   1.487       .  S
C364       C1119   1.432       .  S
Fe365       O381   2.060       .  S
Fe365       O371   2.118       .  S
Fe365       O378   2.017       .  S
Fe365       O370   1.996       .  S
Fe365       O376   1.987       .  S
Fe366       O369   2.071       .  S
Fe366       O373   2.114       .  S
Fe366       O377   2.007       .  S
Fe366       O382   2.011       .  S
Fe366       O376   1.994       .  S
Fe367       O385   2.115       .  S
Fe367       O372   2.006       .  S
Fe367       O379   2.076       .  S
Fe367       O368   2.013       .  S
Fe367       O376   1.979       .  S
O368        C375   1.259       .  A
O369        C383   1.285       .  A
O370        C375   1.253       .  A
O371        C374   1.284       .  A
O372        C384   1.254       .  A
O373        C386   1.278       .  A
C374        O379   1.283       .  A
C374       C1183   1.496       .  S
C375       C1075   1.431       .  S
O377        C380   1.256       .  A
O378        C380   1.260       .  A
C380       C1039   1.436       .  S
O381        C386   1.280       .  A
O382        C384   1.258       .  A
C383        O385   1.281       .  A
C383       C1175   1.493       .  S
C384       C1139   1.437       .  S
C386       C1415   1.496       .  S
C387        C388   1.372       .  D
C387       C1029   1.502       .  S
C387       C1032   1.507       .  S
C388       C1060   1.500       .  S
C388       C1094   1.506       .  S
C389        C390   1.369       .  D
C389       C1025   1.501       .  S
C389       C1027   1.500       .  S
C390       C1022   1.498       .  S
C390       C1023   1.499       .  S
C391        C392   1.371       .  D
C391       C1034   1.501       .  S
C391       C1047   1.502       .  S
C392       C1017   1.505       .  S
C392       C1020   1.504       .  S
Fe393       O409   2.017       .  S
Fe393       O399   2.025       .  S
Fe393       O406   2.132       .  S
Fe393       O398   2.066       .  S
Fe393       O404   1.964       .  S
Fe394       O397   2.007       .  S
Fe394       O401   2.021       .  S
Fe394       O405   2.067       .  S
Fe394       O410   2.136       .  S
Fe394       O404   1.962       .  S
Fe395       O413   2.029       .  S
Fe395       O400   2.069       .  S
Fe395       O407   2.018       .  S
Fe395       O396   2.137       .  S
Fe395       O404   1.957       .  S
O396        C403   1.287       .  A
O397        C411   1.251       .  A
O398        C403   1.287       .  A
O399        C402   1.259       .  A
O400        C412   1.287       .  A
O401        C414   1.260       .  A
C402        O407   1.253       .  A
C402        C998   1.436       .  S
C403        C985   1.488       .  S
O405        C408   1.288       .  A
O406        C408   1.284       .  A
C408       C1172   1.492       .  S
O409        C414   1.254       .  A
O410        C412   1.287       .  A
C411        O413   1.262       .  A
C411        C988   1.433       .  S
C412       C1373   1.492       .  S
C414       C1008   1.437       .  S
Fe415       O431   2.066       .  S
Fe415       O421   2.135       .  S
Fe415       O428   2.025       .  S
Fe415       O420   2.014       .  S
Fe415       O426   1.968       .  S
Fe416       O419   2.064       .  S
Fe416       O423   2.127       .  S
Fe416       O427   2.012       .  S
Fe416       O432   2.024       .  S
Fe416       O426   1.961       .  S
Fe417       O435   2.133       .  S
Fe417       O422   2.006       .  S
Fe417       O429   2.062       .  S
Fe417       O418   2.024       .  S
Fe417       O426   1.961       .  S
O418        C425   1.260       .  A
O419        C433   1.285       .  A
O420        C425   1.253       .  A
O421        C424   1.285       .  A
O422        C434   1.252       .  A
O423        C436   1.284       .  A
C424        O429   1.285       .  A
C424       C1186   1.492       .  S
C425        C966   1.435       .  S
O427        C430   1.253       .  A
O428        C430   1.260       .  A
C430        C991   1.436       .  S
O431        C436   1.287       .  A
O432        C434   1.261       .  A
C433        O435   1.286       .  A
C433        C963   1.489       .  S
C434        C976   1.432       .  S
C436       C1375   1.486       .  S
Fe437       O453   2.011       .  S
Fe437       O443   2.004       .  S
Fe437       O450   2.102       .  S
Fe437       O442   2.076       .  S
Fe437       O448   1.993       .  S
Fe438       O441   2.011       .  S
Fe438       O445   2.010       .  S
Fe438       O449   2.085       .  S
Fe438       O454   2.099       .  S
Fe438       O448   1.987       .  S
Fe439       O457   2.000       .  S
Fe439       O444   2.081       .  S
Fe439       O451   2.010       .  S
Fe439       O440   2.100       .  S
Fe439       O448   2.000       .  S
O440        C447   1.278       .  A
O441        C455   1.256       .  A
O442        C447   1.280       .  A
O443        C446   1.258       .  A
O444        C456   1.283       .  A
O445        C458   1.258       .  A
C446        O451   1.257       .  A
C446       C1011   1.439       .  S
C447       C1168   1.495       .  S
O449        C452   1.282       .  A
O450        C452   1.281       .  A
C452       C1202   1.487       .  S
O453        C458   1.256       .  A
O454        C456   1.279       .  A
C455        O457   1.255       .  A
C455        C947   1.439       .  S
C456       C1382   1.495       .  S
C458        C954   1.443       .  S
Fe459       O475   2.066       .  S
Fe459       O465   2.127       .  S
Fe459       O472   2.022       .  S
Fe459       O464   2.015       .  S
Fe459       O470   1.960       .  S
Fe460       O463   2.064       .  S
Fe460       O467   2.135       .  S
Fe460       O471   2.003       .  S
Fe460       O476   2.024       .  S
Fe460       O470   1.962       .  S
Fe461       O479   2.133       .  S
Fe461       O466   2.016       .  S
Fe461       O473   2.066       .  S
Fe461       O462   2.022       .  S
Fe461       O470   1.970       .  S
O462        C469   1.259       .  A
O463        C477   1.286       .  A
O464        C469   1.253       .  A
O465        C468   1.285       .  A
O466        C478   1.254       .  A
O467        C480   1.286       .  A
C468        O473   1.288       .  A
C468       C1024   1.486       .  S
C469        C934   1.437       .  S
O471        C474   1.252       .  A
O472        C474   1.262       .  A
C474        C944   1.431       .  S
O475        C480   1.285       .  A
O476        C478   1.261       .  A
C477        O479   1.284       .  A
C477       C1182   1.492       .  S
C478        C969   1.436       .  S
C480       C1383   1.493       .  S
Fe481       O497   2.088       .  S
Fe481       O487   2.088       .  S
Fe481       O494   2.004       .  S
Fe481       O486   2.014       .  S
Fe481       O492   1.989       .  S
Fe482       O485   2.081       .  S
Fe482       O489   2.085       .  S
Fe482       O493   2.011       .  S
Fe482       O498   1.993       .  S
Fe482       O492   2.001       .  S
Fe483       O501   2.085       .  S
Fe483       O488   2.013       .  S
Fe483       O495   2.087       .  S
Fe483       O484   1.997       .  S
Fe483       O492   1.999       .  S
O484        C491   1.254       .  A
O485        C499   1.278       .  A
O486        C491   1.257       .  A
O487        C490   1.279       .  A
O488        C500   1.259       .  A
O489        C502   1.279       .  A
C490        O495   1.282       .  A
C490        C911   1.488       .  S
C491        C979   1.441       .  S
O493        C496   1.257       .  A
O494        C496   1.257       .  A
C496        C924   1.442       .  S
O497        C502   1.279       .  A
O498        C500   1.256       .  A
C499        O501   1.276       .  A
C499       C1019   1.494       .  S
C500        C914   1.438       .  S
C502       C1392   1.487       .  S
Fe503       O519   2.014       .  S
Fe503       O509   2.024       .  S
Fe503       O516   2.130       .  S
Fe503       O508   2.062       .  S
Fe503       O514   1.960       .  S
Fe504       O507   2.014       .  S
Fe504       O511   2.027       .  S
Fe504       O515   2.063       .  S
Fe504       O520   2.126       .  S
Fe504       O514   1.961       .  S
Fe505       O523   2.020       .  S
Fe505       O510   2.065       .  S
Fe505       O517   2.011       .  S
Fe505       O506   2.130       .  S
Fe505       O514   1.968       .  S
O506        C513   1.284       .  A
O507        C521   1.254       .  A
O508        C513   1.285       .  A
O509        C512   1.261       .  A
O510        C522   1.286       .  A
O511        C524   1.260       .  A
C512        O517   1.253       .  A
C512        C902   1.434       .  S
C513       C1218   1.489       .  S
O515        C518   1.285       .  A
O516        C518   1.285       .  A
C518        C900   1.484       .  S
O519        C524   1.252       .  A
O520        C522   1.283       .  A
C521        O523   1.260       .  A
C521        C927   1.436       .  S
C522       C1389   1.488       .  S
C524       C1001   1.436       .  S
Fe525       O541   2.008       .  S
Fe525       O531   2.008       .  S
Fe525       O538   2.112       .  S
Fe525       O530   2.068       .  S
Fe525       O536   1.990       .  S
Fe526       O529   2.009       .  S
Fe526       O533   2.004       .  S
Fe526       O537   2.064       .  S
Fe526       O542   2.110       .  S
Fe526       O536   1.985       .  S
Fe527       O545   2.016       .  S
Fe527       O532   2.073       .  S
Fe527       O539   2.014       .  S
Fe527       O528   2.110       .  S
Fe527       O536   1.976       .  S
O528        C535   1.279       .  A
O529        C543   1.254       .  A
O530        C535   1.284       .  A
O531        C534   1.257       .  A
O532        C544   1.282       .  A
O533        C546   1.258       .  A
C534        O539   1.256       .  A
C534        C890   1.439       .  S
C535       C1196   1.489       .  S
O537        C540   1.282       .  A
O538        C540   1.278       .  A
C540       C1018   1.494       .  S
O541        C546   1.256       .  A
O542        C544   1.281       .  A
C543        O545   1.260       .  A
C543        C937   1.440       .  S
C544       C1021   1.485       .  S
C546        C917   1.436       .  S
Fe547       O563   2.014       .  S
Fe547       O553   2.021       .  S
Fe547       O560   2.127       .  S
Fe547       O552   2.062       .  S
Fe547       O558   1.959       .  S
Fe548       O551   2.017       .  S
Fe548       O555   2.024       .  S
Fe548       O559   2.066       .  S
Fe548       O564   2.126       .  S
Fe548       O558   1.968       .  S
Fe549       O567   2.020       .  S
Fe549       O554   2.063       .  S
Fe549       O561   2.010       .  S
Fe549       O550   2.133       .  S
Fe549       O558   1.965       .  S
O550        C557   1.285       .  A
O551        C565   1.255       .  A
O552        C557   1.285       .  A
O553        C556   1.260       .  A
O554        C566   1.286       .  A
O555        C568   1.260       .  A
C556        O561   1.252       .  A
C556        C893   1.433       .  S
C557       C1194   1.491       .  S
O559        C562   1.286       .  A
O560        C562   1.284       .  A
C562       C1198   1.482       .  S
O563        C568   1.253       .  A
O564        C566   1.282       .  A
C565        O567   1.260       .  A
C565        C905   1.436       .  S
C566       C1213   1.490       .  S
C568        C957   1.437       .  S
C569        C570   1.371       .  D
C569        C885   1.507       .  S
C569        C887   1.503       .  S
C570        C912   1.500       .  S
C570        C964   1.502       .  S
C571        C572   1.368       .  D
C571       C1221   1.496   1_655  S
C571       C1239   1.498       .  S
C572        C882   1.498   1_655  S
C572        C884   1.498       .  S
C573        C574   1.370       .  D
C573       C1045   1.503       .  S
C573       C1081   1.503       .  S
C574        C877   1.504       .  S
C574        C880   1.504       .  S
C575        C576   1.369       .  D
C575        C899   1.498       .  S
C575        C986   1.502       .  S
C576        C873   1.502       .  S
C576        C875   1.499       .  S
Fe577       O593   2.082       .  S
Fe577       O583   2.083       .  S
Fe577       O590   2.000       .  S
Fe577       O582   2.008       .  S
Fe577       O588   1.994       .  S
Fe578       O581   2.086       .  S
Fe578       O585   2.082       .  S
Fe578       O589   2.005       .  S
Fe578       O594   1.994       .  S
Fe578       O588   2.005       .  S
Fe579       O597   2.083       .  S
Fe579       O584   2.010       .  S
Fe579       O591   2.093       .  S
Fe579       O580   2.007       .  S
Fe579       O588   1.991       .  S
O580        C587   1.255       .  A
O581        C595   1.280       .  A
O582        C587   1.256       .  A
O583        C586   1.280       .  A
O584        C596   1.258       .  A
O585        C598   1.278       .  A
C586        O591   1.281       .  A
C586       C1405   1.482       .  S
C587        C854   1.443       .  S
O589        C592   1.258       .  A
O590        C592   1.257       .  A
C592        C844   1.437       .  S
O593        C598   1.275       .  A
O594        C596   1.254       .  A
C595        O597   1.277       .  A
C595       C1204   1.494       .  S
C596        C864   1.437       .  S
C598       C1177   1.492       .  S
Fe599       O615   2.088       .  S
Fe599       O605   2.082       .  S
Fe599       O612   1.995       .  S
Fe599       O604   2.015       .  S
Fe599       O610   2.002       .  S
Fe600       O603   2.089       .  S
Fe600       O607   2.081       .  S
Fe600       O611   2.009       .  S
Fe600       O616   2.007       .  S
Fe600       O610   1.994       .  S
Fe601       O619   2.081       .  S
Fe601       O606   2.011       .  S
Fe601       O613   2.082       .  S
Fe601       O602   2.000       .  S
Fe601       O610   1.993       .  S
O602        C609   1.257       .  A
O603        C617   1.279       .  A
O604        C609   1.259       .  A
O605        C608   1.277       .  A
O606        C618   1.257       .  A
O607        C620   1.277       .  A
C608        O613   1.276       .  A
C608        C876   1.489       .  S
C609        C834   1.441       .  S
O611        C614   1.257       .  A
O612        C614   1.255       .  A
C614        C824   1.437       .  S
O615        C620   1.280       .  A
O616        C618   1.256       .  A
C617        O619   1.278       .  A
C617       C1407   1.482       .  S
C618        C857   1.443       .  S
C620       C1030   1.492       .  S
Fe621       O637   2.062       .  S
Fe621       O627   2.129       .  S
Fe621       O634   2.024       .  S
Fe621       O626   2.001       .  S
Fe621       O632   1.966       .  S
Fe622       O625   2.060       .  S
Fe622       O629   2.135       .  S
Fe622       O633   1.996       .  S
Fe622       O638   2.026       .  S
Fe622       O632   1.966       .  S
Fe623       O641   2.129       .  S
Fe623       O628   2.001       .  S
Fe623       O635   2.058       .  S
Fe623       O624   2.025       .  S
Fe623       O632   1.969       .  S
O624        C631   1.261       .  A
O625        C639   1.285       .  A
O626        C631   1.252       .  A
O627        C630   1.284       .  A
O628        C640   1.252       .  A
O629        C642   1.285       .  A
C630        O635   1.284       .  A
C630       C1360   1.488       .  S
C631        C804   1.434       .  S
O633        C636   1.251       .  A
O634        C636   1.262       .  A
C636        C827   1.429       .  S
O637        C642   1.284       .  A
O638        C640   1.261       .  A
C639        O641   1.283       .  A
C639        C888   1.492       .  S
C640        C814   1.434       .  S
C642       C1031   1.495       .  S
Fe643       O659   2.007       .  S
Fe643       O649   1.999       .  S
Fe643       O656   2.077       .  S
Fe643       O648   2.097       .  S
Fe643       O654   1.991       .  S
Fe644       O647   2.011       .  S
Fe644       O651   1.995       .  S
Fe644       O655   2.099       .  S
Fe644       O660   2.076       .  S
Fe644       O654   2.001       .  S
Fe645       O663   2.001       .  S
Fe645       O650   2.092       .  S
Fe645       O657   2.011       .  S
Fe645       O646   2.082       .  S
Fe645       O654   1.992       .  S
O646        C653   1.280       .  A
O647        C661   1.257       .  A
O648        C653   1.281       .  A
O649        C652   1.255       .  A
O650        C662   1.278       .  A
O651        C664   1.255       .  A
C652        O657   1.257       .  A
C652        C807   1.441       .  S
C653       C1358   1.488       .  S
O655        C658   1.280       .  A
O656        C658   1.278       .  A
C658       C1179   1.494       .  S
O659        C664   1.258       .  A
O660        C662   1.280       .  A
C661        O663   1.256       .  A
C661        C794   1.441       .  S
C662       C1028   1.490       .  S
C664        C847   1.436       .  S
Fe665       O681   2.005       .  S
Fe665       O671   2.020       .  S
Fe665       O678   2.130       .  S
Fe665       O670   2.064       .  S
Fe665       O676   1.962       .  S
Fe666       O669   2.015       .  S
Fe666       O673   2.022       .  S
Fe666       O677   2.064       .  S
Fe666       O682   2.132       .  S
Fe666       O676   1.960       .  S
Fe667       O685   2.024       .  S
Fe667       O672   2.063       .  S
Fe667       O679   2.017       .  S
Fe667       O668   2.128       .  S
Fe667       O676   1.961       .  S
O668        C675   1.283       .  A
O669        C683   1.252       .  A
O670        C675   1.286       .  A
O671        C674   1.260       .  A
O672        C684   1.286       .  A
O673        C686   1.261       .  A
C674        O679   1.254       .  A
C674        C837   1.437       .  S
C675        C874   1.488       .  S
O677        C680   1.286       .  A
O678        C680   1.285       .  A
C680        C878   1.492       .  S
O681        C686   1.252       .  A
O682        C684   1.286       .  A
C683        O685   1.259       .  A
C683        C784   1.436       .  S
C684        C883   1.484       .  S
C686        C774   1.434       .  S
Fe687       O703   1.997       .  S
Fe687       O693   2.025       .  S
Fe687       O700   2.134       .  S
Fe687       O692   2.060       .  S
Fe687       O698   1.965       .  S
Fe688       O691   2.009       .  S
Fe688       O695   2.023       .  S
Fe688       O699   2.062       .  S
Fe688       O704   2.130       .  S
Fe688       O698   1.961       .  S
Fe689       O707   2.027       .  S
Fe689       O694   2.063       .  S
Fe689       O701   2.013       .  S
Fe689       O690   2.131       .  S
Fe689       O698   1.966       .  S
O690        C697   1.283       .  A
O691        C705   1.251       .  A
O692        C697   1.285       .  A
O693        C696   1.261       .  A
O694        C706   1.286       .  A
O695        C708   1.263       .  A
C696        O701   1.254       .  A
C696        C764   1.435       .  S
C697       C1208   1.490       .  S
O699        C702   1.284       .  A
O700        C702   1.285       .  A
C702       C1200   1.494       .  S
O703        C708   1.251       .  A
O704        C706   1.286       .  A
C705        O707   1.261       .  A
C705        C787   1.435       .  S
C706        C881   1.484       .  S
C708        C867   1.429       .  S
Fe709       O725   2.030       .  S
Fe709       O715   1.992       .  S
Fe709       O722   2.058       .  S
Fe709       O714   2.127       .  S
Fe709       O720   1.976       .  S
Fe710       O713   2.028       .  S
Fe710       O717   1.991       .  S
Fe710       O721   2.128       .  S
Fe710       O726   2.063       .  S
Fe710       O720   1.975       .  S
Fe711       O729   1.996       .  S
Fe711       O716   2.131       .  S
Fe711       O723   2.027       .  S
Fe711       O712   2.060       .  S
Fe711       O720   1.972       .  S
O712        C719   1.283       .  A
O713        C727   1.262       .  A
O714        C719   1.283       .  A
O715        C718   1.251       .  A
O716        C728   1.284       .  A
O717        C730   1.252       .  A
C718        O723   1.261       .  A
C718        C754   1.434       .  S
C719       C1423   1.493       .  S
O721        C724   1.283       .  A
O722        C724   1.282       .  A
C724        C879   1.493       .  S
O725        C730   1.263       .  A
O726        C728   1.284       .  A
C727        O729   1.252       .  A
C727        C817   1.436       .  S
C728        C886   1.494       .  S
C730        C777   1.435       .  S
Fe731       O747   2.009       .  S
Fe731       O737   2.026       .  S
Fe731       O744   2.130       .  S
Fe731       O736   2.062       .  S
Fe731       O742   1.960       .  S
Fe732       O735   2.009       .  S
Fe732       O739   2.023       .  S
Fe732       O743   2.063       .  S
Fe732       O748   2.133       .  S
Fe732       O742   1.966       .  S
Fe733       O751   2.028       .  S
Fe733       O738   2.058       .  S
Fe733       O745   2.004       .  S
Fe733       O734   2.135       .  S
Fe733       O742   1.956       .  S
O734        C741   1.286       .  A
O735        C749   1.252       .  A
O736        C741   1.285       .  A
O737        C740   1.261       .  A
O738        C750   1.284       .  A
O739        C752   1.261       .  A
C740        O745   1.251       .  A
C740        C757   1.433       .  S
C741       C1422   1.488       .  S
O743        C746   1.286       .  A
O744        C746   1.284       .  A
C746       C1026   1.487       .  S
O747        C752   1.253       .  A
O748        C750   1.285       .  A
C749        O751   1.262       .  A
C749        C767   1.433       .  S
C750       C1212   1.489       .  S
C752        C797   1.437       .  S
C753        C754   1.398       .  A
C753        C758   1.377   1_655  A
C753        H759   1.084       .  S
C754        C755   1.400       .  A
C755        C756   1.379   1_655  A
C755        H760   1.083       .  S
C756        C757   1.397       .  A
C756        H761   1.083       .  S
C757        C758   1.398       .  A
C758        H762   1.084       .  S
C763        C764   1.402       .  A
C763        C768   1.380       .  A
C763        H769   1.083       .  S
C764        C765   1.395       .  A
C765        C766   1.379       .  A
C765        H770   1.084       .  S
C766        C767   1.401       .  A
C766        H771   1.082       .  S
C767        C768   1.395       .  A
C768        H772   1.084       .  S
C773        C774   1.397       .  A
C773        C778   1.379       .  A
C773        H779   1.083       .  S
C774        C775   1.399       .  A
C775        C776   1.377       .  A
C775        H780   1.084       .  S
C776        C777   1.398       .  A
C776        H781   1.084       .  S
C777        C778   1.401       .  A
C778        H782   1.083       .  S
C783        C784   1.396       .  A
C783        C788   1.380   1_655  A
C783        H789   1.083       .  S
C784        C785   1.401       .  A
C785        C786   1.380   1_655  A
C785        H790   1.083       .  S
C786        C787   1.396       .  A
C786        H791   1.083       .  S
C787        C788   1.401       .  A
C788        H792   1.083       .  S
C793        C794   1.400       .  A
C793        C798   1.379       .  A
C793        H799   1.083       .  S
C794        C795   1.403       .  A
C795        C796   1.379       .  A
C795        H800   1.083       .  S
C796        C797   1.396       .  A
C796        H801   1.083       .  S
C797        C798   1.399       .  A
C798        H802   1.084       .  S
C803        C804   1.398       .  A
C803        C808   1.378   1_655  A
C803        H809   1.084       .  S
C804        C805   1.397       .  A
C805        C806   1.379   1_655  A
C805        H810   1.083       .  S
C806        C807   1.402       .  A
C806        H811   1.083       .  S
C807        C808   1.400       .  A
C808        H812   1.083       .  S
C813        C814   1.398       .  A
C813        C818   1.379       .  A
C813        H819   1.083       .  S
C814        C815   1.399       .  A
C815        C816   1.377       .  A
C815        H820   1.084       .  S
C816        C817   1.398       .  A
C816        H821   1.084       .  S
C817        C818   1.400       .  A
C818        H822   1.083       .  S
C823        C824   1.402       .  A
C823        C828   1.377       .  A
C823        H829   1.083       .  S
C824        C825   1.400       .  A
C825        C826   1.377       .  A
C825        H830   1.083       .  S
C826        C827   1.397       .  A
C826        H831   1.084       .  S
C827        C828   1.395       .  A
C828        H832   1.084       .  S
C833        C834   1.399       .  A
C833        C838   1.379       .  A
C833        H839   1.083       .  S
C834        C835   1.404       .  A
C835        C836   1.379       .  A
C835        H840   1.083       .  S
C836        C837   1.395       .  A
C836        H841   1.083       .  S
C837        C838   1.401       .  A
C838        H842   1.083       .  S
C843        C844   1.400       .  A
C843        C848   1.376       .  A
C843        H849   1.083       .  S
C844        C845   1.399       .  A
C845        C846   1.376       .  A
C845        H850   1.083       .  S
C846        C847   1.399       .  A
C846        H851   1.083       .  S
C847        C848   1.399       .  A
C848        H852   1.084       .  S
C853        C854   1.400       .  A
C853        C858   1.379   1_455  A
C853        H859   1.083       .  S
C854        C855   1.400       .  A
C855        C856   1.379   1_455  A
C855        H860   1.083       .  S
C856        C857   1.400       .  A
C856        H861   1.083       .  S
C857        C858   1.400       .  A
C858        H862   1.083       .  S
C863        C864   1.400       .  A
C863        C868   1.377       .  A
C863        H869   1.083       .  S
C864        C865   1.403       .  A
C865        C866   1.377       .  A
C865        H870   1.083       .  S
C866        C867   1.395       .  A
C866        H871   1.084       .  S
C867        C868   1.398       .  A
C868        H872   1.084       .  S
C873        C874   1.239       .  T
C875        C876   1.238       .  T
C877        C878   1.240       .  T
C879        C880   1.241       .  T
C881        C882   1.237       .  T
C883        C884   1.237       .  T
C885        C886   1.242       .  T
C887        C888   1.240       .  T
C889        C890   1.397       .  A
C889        C894   1.379   1_556  A
C889        H895   1.083       .  S
C890        C891   1.404       .  A
C891        C892   1.379   1_556  A
C891        H896   1.083       .  S
C892        C893   1.394       .  A
C892        H897   1.084       .  S
C893        C894   1.400       .  A
C894        H898   1.084       .  S
C899        C900   1.237       .  T
C901        C902   1.394       .  A
C901        C906   1.380       .  A
C901        H907   1.084       .  S
C902        C903   1.401       .  A
C903        C904   1.380       .  A
C903        H908   1.083       .  S
C904        C905   1.395       .  A
C904        H909   1.083       .  S
C905        C906   1.403       .  A
C906        H910   1.083       .  S
C911        C912   1.238       .  T
C913        C914   1.404       .  A
C913        C918   1.377       .  A
C913        H919   1.083       .  S
C914        C915   1.397       .  A
C915        C916   1.377       .  A
C915        H920   1.083       .  S
C916        C917   1.402       .  A
C916        H921   1.084       .  S
C917        C918   1.395       .  A
C918        H922   1.083       .  S
C923        C924   1.403       .  A
C923        C928   1.379   1_556  A
C923        H929   1.083       .  S
C924        C925   1.399       .  A
C925        C926   1.379   1_556  A
C925        H930   1.083       .  S
C926        C927   1.400       .  A
C926        H931   1.084       .  S
C927        C928   1.396       .  A
C928        H932   1.083       .  S
C933        C934   1.397       .  A
C933        C938   1.380       .  A
C933        H939   1.083       .  S
C934        C935   1.401       .  A
C935        C936   1.380       .  A
C935        H940   1.084       .  S
C936        C937   1.397       .  A
C936        H941   1.083       .  S
C937        C938   1.402       .  A
C938        H942   1.084       .  S
C943        C944   1.399       .  A
C943        C948   1.378   1_556  A
C943        H949   1.084       .  S
C944        C945   1.395       .  A
C945        C946   1.378   1_556  A
C945        H950   1.084       .  S
C946        C947   1.403       .  A
C946        H951   1.083       .  S
C947        C948   1.399       .  A
C948        H952   1.083       .  S
C953        C954   1.403       .  A
C953        C958   1.380       .  A
C953        H959   1.083       .  S
C954        C955   1.399       .  A
C955        C956   1.380       .  A
C955        H960   1.083       .  S
C956        C957   1.400       .  A
C956        H961   1.084       .  S
C957        C958   1.396       .  A
C958        H962   1.083       .  S
C963        C964   1.239       .  T
C965        C966   1.402       .  A
C965        C970   1.380       .  A
C965        H971   1.082       .  S
C966        C967   1.394       .  A
C967        C968   1.380       .  A
C967        H972   1.083       .  S
C968        C969   1.402       .  A
C968        H973   1.082       .  S
C969        C970   1.394       .  A
C970        H974   1.083       .  S
C975        C976   1.395       .  A
C975        C980   1.379       .  A
C975        H981   1.084       .  S
C976        C977   1.399       .  A
C977        C978   1.378       .  A
C977        H982   1.084       .  S
C978        C979   1.399       .  A
C978        H983   1.083       .  S
C979        C980   1.404       .  A
C980        H984   1.083       .  S
C985        C986   1.238       .  T
C987        C988   1.396       .  A
C987        C992   1.380   1_554  A
C987        H993   1.084       .  S
C988        C989   1.400       .  A
C989        C990   1.380   1_554  A
C989        H994   1.083       .  S
C990        C991   1.397       .  A
C990        H995   1.083       .  S
C991        C992   1.401       .  A
C992        H996   1.083       .  S
C997        C998   1.402       .  A
C997       C1002   1.381       .  A
C997       H1003   1.083       .  S
C998        C999   1.395       .  A
C999       C1000   1.381       .  A
C999       H1004   1.083       .  S
C1000      C1001   1.401       .  A
C1000      H1005   1.083       .  S
C1001      C1002   1.395       .  A
C1002      H1006   1.083       .  S
C1007      C1008   1.401       .  A
C1007      C1012   1.379       .  A
C1007      H1013   1.083       .  S
C1008      C1009   1.395       .  A
C1009      C1010   1.379       .  A
C1009      H1014   1.083       .  S
C1010      C1011   1.404       .  A
C1010      H1015   1.083       .  S
C1011      C1012   1.397       .  A
C1012      H1016   1.083       .  S
C1017      C1018   1.241       .  T
C1019      C1020   1.241       .  T
C1021      C1022   1.237       .  T
C1023      C1024   1.237       .  T
C1025      C1026   1.238       .  T
C1027      C1028   1.238       .  T
C1029      C1030   1.240       .  T
C1031      C1032   1.242       .  T
C1033      C1034   1.238       .  T
C1035      C1036   1.401       .  A
C1035      C1040   1.380   1_545  A
C1035      H1041   1.083       .  S
C1036      C1037   1.395       .  A
C1037      C1038   1.379   1_545  A
C1037      H1042   1.083       .  S
C1038      C1039   1.403       .  A
C1038      H1043   1.083       .  S
C1039      C1040   1.397       .  A
C1040      H1044   1.083       .  S
C1045      C1046   1.240       .  T
C1047      C1048   1.239       .  T
C1049      C1050   1.401       .  A
C1049      C1054   1.380       .  A
C1049      H1055   1.083       .  S
C1050      C1051   1.397       .  A
C1051      C1052   1.380       .  A
C1051      H1056   1.083       .  S
C1052      C1053   1.400       .  A
C1052      H1057   1.083       .  S
C1053      C1054   1.395       .  A
C1054      H1058   1.084       .  S
C1059      C1060   1.238       .  T
C1061      C1062   1.405       .  A
C1061      C1066   1.379   1_565  A
C1061      H1067   1.083       .  S
C1062      C1063   1.399       .  A
C1063      C1064   1.380   1_565  A
C1063      H1068   1.083       .  S
C1064      C1065   1.400       .  A
C1064      H1069   1.084       .  S
C1065      C1066   1.395       .  A
C1066      H1070   1.084       .  S
C1071      C1072   1.399       .  A
C1071      C1076   1.378       .  A
C1071      H1077   1.083       .  S
C1072      C1073   1.401       .  A
C1073      C1074   1.374       .  A
C1073      H1078   1.083       .  S
C1074      C1075   1.396       .  A
C1074      H1079   1.084       .  S
C1075      C1076   1.399       .  A
C1076      H1080   1.084       .  S
C1081      C1082   1.240       .  T
C1083      C1084   1.400       .  A
C1083      C1088   1.379       .  A
C1083      H1089   1.083       .  S
C1084      C1085   1.399       .  A
C1085      C1086   1.377       .  A
C1085      H1090   1.084       .  S
C1086      C1087   1.398       .  A
C1086      H1091   1.084       .  S
C1087      C1088   1.397       .  A
C1088      H1092   1.083       .  S
C1093      C1094   1.241       .  T
C1095      C1096   1.400       .  A
C1095      C1100   1.378       .  A
C1095      H1101   1.083       .  S
C1096      C1097   1.399       .  A
C1097      C1098   1.377       .  A
C1097      H1102   1.084       .  S
C1098      C1099   1.400       .  A
C1098      H1103   1.083       .  S
C1099      C1100   1.400       .  A
C1100      H1104   1.083       .  S
C1105      C1106   1.399       .  A
C1105      C1110   1.378   1_565  A
C1105      H1111   1.083       .  S
C1106      C1107   1.401       .  A
C1107      C1108   1.378   1_565  A
C1107      H1112   1.084       .  S
C1108      C1109   1.398       .  A
C1108      H1113   1.083       .  S
C1109      C1110   1.399       .  A
C1110      H1114   1.084       .  S
C1115      C1116   1.401       .  A
C1115      C1120   1.379       .  A
C1115      H1121   1.083       .  S
C1116      C1117   1.396       .  A
C1117      C1118   1.379       .  A
C1117      H1122   1.083       .  S
C1118      C1119   1.400       .  A
C1118      H1123   1.083       .  S
C1119      C1120   1.395       .  A
C1120      H1124   1.084       .  S
C1125      C1126   1.398       .  A
C1125      C1130   1.378       .  A
C1125      H1131   1.084       .  S
C1126      C1127   1.397       .  A
C1127      C1128   1.380       .  A
C1127      H1132   1.083       .  S
C1128      C1129   1.401       .  A
C1128      H1133   1.083       .  S
C1129      C1130   1.400       .  A
C1130      H1134   1.084       .  S
C1135      C1136   1.399       .  A
C1135      C1140   1.378       .  A
C1135      H1141   1.084       .  S
C1136      C1137   1.396       .  A
C1137      C1138   1.379       .  A
C1137      H1142   1.083       .  S
C1138      C1139   1.402       .  A
C1138      H1143   1.083       .  S
C1139      C1140   1.398       .  A
C1140      H1144   1.083       .  S
C1145      C1146   1.397       .  A
C1145      C1150   1.376       .  A
C1145      H1151   1.084       .  S
C1146      C1147   1.396       .  A
C1147      C1148   1.375       .  A
C1147      H1152   1.084       .  S
C1148      C1149   1.400       .  A
C1148      H1153   1.083       .  S
C1149      C1150   1.399       .  A
C1150      H1154   1.084       .  S
C1155      C1156   1.402       .  A
C1155      C1160   1.380   1_565  A
C1155      H1161   1.083       .  S
C1156      C1157   1.396       .  A
C1157      C1158   1.380   1_565  A
C1157      H1162   1.084       .  S
C1158      C1159   1.401       .  A
C1158      H1163   1.083       .  S
C1159      C1160   1.395       .  A
C1160      H1164   1.084       .  S
C1165      C1166   1.243       .  T
C1167      C1168   1.242       .  T
C1169      C1170   1.243       .  T
C1171      C1172   1.241       .  T
C1173      C1174   1.242       .  T
C1175      C1176   1.241       .  T
C1177      C1178   1.240       .  T
C1179      C1180   1.241       .  T
C1181      C1182   1.241       .  T
C1183      C1184   1.242       .  T
C1185      C1186   1.241       .  T
C1187      C1188   1.242       .  T
C1189      C1190   1.239       .  T
C1191      C1192   1.239       .  T
C1193      C1194   1.240       .  T
C1195      C1196   1.238       .  T
C1197      C1198   1.236       .  T
C1199      C1200   1.241       .  T
C1201      C1202   1.237       .  T
C1203      C1204   1.241       .  T
C1205      C1206   1.239       .  T
C1207      C1208   1.240       .  T
C1209      C1210   1.240       .  T
C1211      C1212   1.239       .  T
C1213      C1214   1.240       .  T
C1215      C1216   1.238       .  T
C1217      C1218   1.239       .  T
C1219      C1220   1.239       .  T
C1221      C1222   1.236       .  T
C1223      C1224   1.239       .  T
C1225      C1226   1.237       .  T
C1227      C1228   1.239       .  T
C1229      C1230   1.395       .  A
C1229      C1234   1.380   1_556  A
C1229      H1235   1.084       .  S
C1230      C1231   1.401       .  A
C1231      C1232   1.380   1_556  A
C1231      H1236   1.083       .  S
C1232      C1233   1.396       .  A
C1232      H1237   1.083       .  S
C1233      C1234   1.401       .  A
C1234      H1238   1.083       .  S
C1239      C1240   1.237       .  T
C1241      C1242   1.400       .  A
C1241      C1246   1.379   1_655  A
C1241      H1247   1.083       .  S
C1242      C1243   1.403       .  A
C1243      C1244   1.379   1_655  A
C1243      H1248   1.083       .  S
C1244      C1245   1.396       .  A
C1244      H1249   1.084       .  S
C1245      C1246   1.399       .  A
C1246      H1250   1.084       .  S
C1251      C1252   1.401       .  A
C1251      C1256   1.380   1_655  A
C1251      H1257   1.083       .  S
C1252      C1253   1.396       .  A
C1253      C1254   1.380   1_655  A
C1253      H1258   1.083       .  S
C1254      C1255   1.400       .  A
C1254      H1259   1.083       .  S
C1255      C1256   1.396       .  A
C1256      H1260   1.084       .  S
C1261      C1262   1.400       .  A
C1261      C1266   1.379   1_556  A
C1261      H1267   1.083       .  S
C1262      C1263   1.395       .  A
C1263      C1264   1.380   1_556  A
C1263      H1268   1.083       .  S
C1264      C1265   1.403       .  A
C1264      H1269   1.083       .  S
C1265      C1266   1.398       .  A
C1266      H1270   1.083       .  S
C1271      C1272   1.399       .  A
C1271      C1276   1.379   1_565  A
C1271      H1277   1.084       .  S
C1272      C1273   1.396       .  A
C1273      C1274   1.379   1_565  A
C1273      H1278   1.084       .  S
C1274      C1275   1.403       .  A
C1274      H1279   1.083       .  S
C1275      C1276   1.399       .  A
C1276      H1280   1.083       .  S
C1281      C1282   1.241       .  T
C1283      C1284   1.404       .  A
C1283      C1288   1.380   1_455  A
C1283      H1289   1.083       .  S
C1284      C1285   1.398       .  A
C1285      C1286   1.379   1_455  A
C1285      H1290   1.083       .  S
C1286      C1287   1.401       .  A
C1286      H1291   1.083       .  S
C1287      C1288   1.396       .  A
C1288      H1292   1.083       .  S
C1293      C1294   1.399       .  A
C1293      C1298   1.377   1_565  A
C1293      H1299   1.083       .  S
C1294      C1295   1.403       .  A
C1295      C1296   1.378   1_565  A
C1295      H1300   1.083       .  S
C1296      C1297   1.395       .  A
C1296      H1301   1.083       .  S
C1297      C1298   1.398       .  A
C1298      H1302   1.084       .  S
C1303      C1304   1.402       .  A
C1303      C1308   1.379   1_565  A
C1303      H1309   1.083       .  S
C1304      C1305   1.400       .  A
C1305      C1306   1.378   1_565  A
C1305      H1310   1.084       .  S
C1306      C1307   1.398       .  A
C1306      H1311   1.084       .  S
C1307      C1308   1.397       .  A
C1308      H1312   1.083       .  S
C1313      C1314   1.402       .  A
C1313      C1318   1.374   1_556  A
C1313      H1319   1.083       .  S
C1314      C1315   1.398       .  A
C1315      C1316   1.377   1_556  A
C1315      H1320   1.084       .  S
C1316      C1317   1.398       .  A
C1316      H1321   1.084       .  S
C1317      C1318   1.393       .  A
C1318      H1322   1.084       .  S
C1323      C1324   1.395       .  A
C1323      C1328   1.380   1_455  A
C1323      H1329   1.083       .  S
C1324      C1325   1.400       .  A
C1325      C1326   1.379   1_455  A
C1325      H1330   1.084       .  S
C1326      C1327   1.398       .  A
C1326      H1331   1.083       .  S
C1327      C1328   1.405       .  A
C1328      H1332   1.083       .  S
C1333      C1334   1.401       .  A
C1333      C1338   1.380   1_565  A
C1333      H1339   1.083       .  S
C1334      C1335   1.395       .  A
C1335      C1336   1.380   1_565  A
C1335      H1340   1.084       .  S
C1336      C1337   1.401       .  A
C1336      H1341   1.083       .  S
C1337      C1338   1.396       .  A
C1338      H1342   1.084       .  S
C1343      C1344   1.394       .  A
C1343      C1348   1.380   1_556  A
C1343      H1349   1.084       .  S
C1344      C1345   1.401       .  A
C1345      C1346   1.380   1_556  A
C1345      H1350   1.083       .  S
C1346      C1347   1.399       .  A
C1346      H1351   1.083       .  S
C1347      C1348   1.405       .  A
C1348      H1352   1.083       .  S
C1353      C1354   1.239       .  T
C1355      C1356   1.239       .  T
C1357      C1358   1.238       .  T
C1359      C1360   1.238       .  T
C1361      C1362   1.239       .  T
C1363      C1364   1.236       .  T
C1365      C1366   1.237       .  T
C1367      C1368   1.241       .  T
C1369      C1370   1.242       .  T
C1371      C1372   1.245       .  T
C1373      C1374   1.241       .  T
C1375      C1376   1.238       .  T
C1377      C1378   1.241       .  T
C1379      C1380   1.239       .  T
C1381      C1382   1.242       .  T
C1383      C1384   1.242       .  T
C1385      C1386   1.236       .  T
C1387      C1388   1.238       .  T
C1389      C1390   1.239       .  T
C1391      C1392   1.237       .  T
C1393      C1394   1.237       .  T
C1395      C1396   1.236       .  T
C1397      C1398   1.238       .  T
C1399      C1400   1.239       .  T
C1401      C1402   1.238       .  T
C1403      C1404   1.238       .  T
C1405      C1406   1.234       .  T
C1407      C1408   1.234       .  T
C1409      C1410   1.239       .  T
C1411      C1412   1.237       .  T
C1413      C1414   1.239       .  T
C1415      C1416   1.242       .  T
C1417      C1418   1.238       .  T
C1419      C1420   1.236       .  T
C1421      C1422   1.238       .  T
C1423      C1424   1.241       .  T
