geometry optimzed in LAMMPS
_audit_creation_date              2020-12-01 
_audit_creation_method            'lammps2cif' 
_symmetry_space_group_name_H-M    'P1' 
_symmetry_Int_Tables_number       1 
_symmetry_cell_setting            triclinic 
loop_ 
_symmetry_equiv_pos_as_xyz 
  x,y,z 
_cell_length_a                    29.29140812 
_cell_length_b                    32.86323287417387 
_cell_length_c                    30.650555085402985 
_cell_angle_alpha                 90.08162653532513 
_cell_angle_beta                  115.26800317447785 
_cell_angle_gamma                 89.10878288244163 
loop_ 
_atom_site_label 
_atom_site_type_symbol 
_atom_site_fract_x 
_atom_site_fract_y 
_atom_site_fract_z 
_atom_site_charge 
N1          N  0.23271897  0.17273557  0.44547537    -0.02600
C2          C  0.18938434  0.17432092  0.45218981     0.00000
C3          C  0.14953924  0.15989687  0.41148280    -0.22900
C4          C  0.16883908  0.14746526  0.38008623    -0.23100
C5          C  0.22040124  0.15298139  0.40263524    -0.00100
H6          H  0.11105406  0.15544479  0.40627221     0.13700
H7          H  0.14854210  0.12963739  0.34800741     0.13700
N8          N  0.17192066  0.25521581  0.10522393    -0.02600
C9          C  0.16581178  0.24788920  0.14629594     0.00000
C10         C  0.19118930  0.27709341  0.18049242    -0.22900
C11         C  0.21217023  0.30346372  0.16000478    -0.23100
C12         C  0.19972414  0.28965981  0.11390953    -0.00100
H13         H  0.18961652  0.28167048  0.21483140     0.13700
H14         H  0.23135663  0.33132725  0.17584855     0.13700
N15         N  0.24685888  0.42753670  0.97179084    -0.02600
C16         C  0.23906220  0.46394786  0.46554283     0.00000
C17         C  0.20704943  0.47779651  0.48503505    -0.22900
C18         C  0.19079895  0.44770337  0.99986487    -0.23100
C19         C  0.22255399  0.41651607  0.99889764    -0.00100
H20         H  0.19107699  0.50815168  0.48203789     0.13700
H21         H  0.16604117  0.44742366  0.01785488     0.13700
N22         N  0.39522748  0.27968737  0.99252438    -0.02600
C23         C  0.44577653  0.27224924  0.01445195     0.00000
C24         C  0.47064911  0.29708465  0.99592259    -0.22900
C25         C  0.43451865  0.32184061  0.96250084    -0.23100
C26         C  0.38845823  0.31194403  0.96214449    -0.00100
H27         H  0.51101452  0.30037199  0.00937010     0.13700
H28         H  0.44228999  0.34866977  0.94651478     0.13700
N29         N  0.14374703  0.47214849  0.25177702    -0.02600
C30         C  0.19129241  0.48251689  0.26015704     0.00000
C31         C  0.21084671  0.45596888  0.23739571    -0.22900
C32         C  0.17429165  0.42749436  0.21523467    -0.23100
C33         C  0.13367189  0.43732096  0.22556859    -0.00100
H34         H  0.24928772  0.45458418  0.24113186     0.13700
H35         H  0.17972221  0.39939419  0.19943665     0.13700
N36         N  0.97161082  0.08729635  0.19892475    -0.02600
C37         C  0.95394390  0.11657937  0.16384203     0.00000
C38         C  0.39759065  0.12771717  0.15203876    -0.22900
C39         C  0.38299556  0.10091902  0.17769213    -0.23100
C40         C  0.42510943  0.07780269  0.20547994    -0.00100
H41         H  0.37462173  0.15235047  0.12963972     0.17100
H42         H  0.34675638  0.10079792  0.17922447     0.13700
N43         N  0.44481373  0.49489670  0.38207710    -0.02600
C44         C  0.43009871  0.50763376  0.41648010     0.00000
C45         C  0.45544387  0.48511643  0.45834199    -0.22900
C46         C  0.48457079  0.45652592  0.44871257    -0.23100
C47         C  0.47670989  0.46261551  0.40149453    -0.00100
H48         H  0.44838645  0.48564063  0.49024164     0.13700
H49         H  0.50439568  0.43103871  0.47167918     0.13700
N50         N  0.02565606  0.31263455  0.27090374    -0.02600
C51         C  0.52738411  0.27551507  0.26496293     0.00000
C52         C  0.51597445  0.25453628  0.29797259    -0.22900
C53         C  0.50974812  0.28323670  0.32785197    -0.23100
C54         C  0.51855407  0.32070891  0.31265767    -0.00100
H55         H  0.51075202  0.22208123  0.29903185     0.13700
H56         H  0.49873259  0.27752705  0.35677067     0.13700
In57       In  0.27569422  0.04367889  0.38161920     1.36900
C58         C  0.25659842  0.49043523  0.43718829     0.78500
O59         O  0.35000429  0.53933372  0.36484223    -0.60000
O60         O  0.35657963  0.03195764  0.43282432    -0.50900
C61         C  0.21498726  0.01118636  0.29770126     0.71200
O62         O  0.20765937  0.52119381  0.33109192    -0.45700
C63         C  0.25129881  0.12006900  0.39467839     0.75900
O64         O  0.24350398  0.52731199  0.43023179    -0.57600
O65         O  0.24151491  0.10609238  0.35332018    -0.47700
O66         O  0.28105372  0.98233423  0.41863483    -0.54000
C67         C  0.37203774  0.02874396  0.40030315     0.86000
O68         O  0.25988643  0.02020726  0.30741519    -0.55900
O69         O  0.28058232  0.09763440  0.42852336    -0.59200
In70       In  0.02958077  0.21442514  0.14418399     1.36900
C71         C  0.53121159  0.25600894  0.22323510     0.78500
O72         O  0.00627320  0.22294815  0.06495413    -0.60000
O73         O  0.46946795  0.26167773  0.09876735    -0.50900
C74         C  0.12128290  0.22861628  0.14852940     0.71200
O75         O  0.10564462  0.24112759  0.17856839    -0.45700
C76         C  0.98415074  0.14673297  0.15186082     0.75900
O77         O  0.01916563  0.27141697  0.18074058    -0.57600
O78         O  0.45844089  0.18235219  0.12990991    -0.47700
O79         O  0.54266699  0.21878585  0.22380854    -0.54000
C80         C  0.47241890  0.25051800  0.06061556     0.86000
O81         O  0.09280036  0.20297849  0.11917302    -0.55900
O82         O  0.03169942  0.14945139  0.17263663    -0.59200
C83         C  0.53447276  0.42296154  0.37647979    -0.25400
C84         C  0.48574095  0.42932622  0.37344786    -0.13500
C85         C  0.44779463  0.40048888  0.34892021     0.37100
C86         C  0.45958415  0.36661405  0.32781276    -0.24900
C87         C  0.50832860  0.35989351  0.33121314    -0.14100
C88         C  0.54611896  0.38842951  0.35570635     0.38200
N89         N  0.09015463  0.37885752  0.35616710    -0.88300
H90         H  0.56401344  0.44420678  0.39638045     0.19300
H91         H  0.43041924  0.34465128  0.30937707     0.19300
N92         N  0.39699487  0.40429224  0.34464885    -0.87400
H93         H  0.11436896  0.37784460  0.39295951     0.36700
H94         H  0.09978118  0.40399773  0.34119022     0.41800
H95         H  0.39119165  0.43068283  0.36056426     0.41400
H96         H  0.39092542  0.37984996  0.36323189     0.36300
C97         C  0.43846115  0.07716303  0.29073027    -0.25400
C98         C  0.42755048  0.05529905  0.24823263    -0.13500
C99         C  0.41413057  0.01425173  0.24605706     0.37100
C100        C  0.41350594  0.99532282  0.28698663    -0.24900
C101        C  0.42687205  0.01665352  0.33053958    -0.14100
C102        C  0.43879891  0.05818482  0.33182357     0.38200
N103        N  0.45299238  0.08091898  0.37541881    -0.88300
H104        H  0.44755669  0.10913573  0.29220973     0.19300
H105        H  0.41781249  0.46421127  0.29208830     0.19300
N106        N  0.40133157  0.99172298  0.20250377    -0.87400
H107        H  0.42797132  0.10570651  0.36830809     0.36700
H108        H  0.48916938  0.09220113  0.38501189     0.41800
H109        H  0.92007725  0.96660612  0.20782874     0.41400
H110        H  0.38395953  0.48111521  0.19995224     0.36300
C111        C  0.07576876  0.02309922  0.19182303    -0.25400
C112        C  0.09792271  0.00533712  0.23787636    -0.13500
C113        C  0.08119935  0.01762716  0.27285405     0.37100
C114        C  0.04312258  0.04783666  0.26081192    -0.24900
C115        C  0.01803393  0.06346045  0.21343990    -0.14100
C116        C  0.03495407  0.05047595  0.17874138     0.38200
N117        N  0.00885945  0.06282703  0.12928079    -0.88300
H118        H  0.08835122  0.01347480  0.16486137     0.19300
H119        H  0.03197575  0.05782351  0.28843140     0.19300
N120        N  0.10740598  0.49507023  0.32497645    -0.87400
H121        H  0.99585218  0.03674886  0.10826768     0.36700
H122        H  0.03471395  0.07683447  0.11916241     0.41800
H123        H  0.13391976  0.47226844  0.32828864     0.41400
H124        H  0.07700624  0.48053830  0.32731731     0.36300
C125        C  0.12893906  0.37049303  0.26013547    -0.25400
C126        C  0.10270365  0.40448999  0.23235628    -0.13500
C127        C  0.04921943  0.40569088  0.21335402     0.37100
C128        C  0.02407260  0.37473285  0.22541601    -0.24900
C129        C  0.05096896  0.34201285  0.25481250    -0.14100
C130        C  0.10361700  0.33910602  0.27097043     0.38200
N131        N  0.13123406  0.30478362  0.29969840    -0.88300
H132        H  0.16975870  0.36884940  0.27459754     0.19300
H133        H  0.98338009  0.37631816  0.21223317     0.19300
N134        N  0.01919761  0.43689387  0.18084791    -0.87400
H135        H  0.16971585  0.30705727  0.30856477     0.36700
H136        H  0.12764522  0.30556600  0.33222216     0.41800
H137        H  0.03147436  0.44074596  0.15373514     0.41400
H138        H  0.02331390  0.46383763  0.19990547     0.36300
C139        C  0.26525842  0.37111140  0.92880036    -0.25400
C140        C  0.28250494  0.40316802  0.96199797    -0.13500
C141        C  0.33491944  0.40923536  0.98763284     0.37100
C142        C  0.36841671  0.37971130  0.98505196    -0.24900
C143        C  0.35116685  0.34520316  0.95574444    -0.14100
C144        C  0.29955812  0.34277985  0.92431404     0.38200
N145        N  0.28194779  0.31136070  0.88883679    -0.88300
H146        H  0.22507907  0.36760026  0.90734850     0.19300
H147        H  0.40833863  0.38287441  0.00808351     0.19300
N148        N  0.35543047  0.44302641  0.01956666    -0.87400
H149        H  0.25376155  0.29548018  0.89358115     0.36700
H150        H  0.26518838  0.32540072  0.85493071     0.41800
H151        H  0.32717918  0.46215928  0.02055391     0.41400
H152        H  0.37601533  0.46030090  0.00578001     0.36300
C153        C  0.17850452  0.35566715  0.00517991    -0.25400
C154        C  0.22415607  0.37630913  0.02141441    -0.13500
C155        C  0.26406558  0.36418631  0.06571395     0.37100
C156        C  0.25684874  0.33258880  0.09275313    -0.24900
C157        C  0.20980238  0.31381248  0.07790391    -0.14100
C158        C  0.17045136  0.32569987  0.03340584     0.38200
N159        N  0.12050630  0.31109309  0.01887087    -0.88300
H160        H  0.14682086  0.36587551  0.97260409     0.19300
H161        H  0.28715927  0.32473930  0.12748586     0.19300
N162        N  0.31081917  0.38528214  0.08614637    -0.87400
H163        H  0.09701657  0.33585028  0.01738458     0.36700
H164        H  0.10849682  0.30007778  0.98374548     0.41800
H165        H  0.30341261  0.41634658  0.08762729     0.41400
H166        H  0.32908613  0.38079581  0.06387931     0.36300
C167        C  0.13646787  0.19777659  0.98979390    -0.25400
C168        C  0.18422853  0.18287854  0.99544149    -0.13500
C169        C  0.22458225  0.18395835  0.04223830     0.37100
C170        C  0.21877452  0.20662096  0.07846086    -0.24900
C171        C  0.17239988  0.22514006  0.07096268    -0.14100
C172        C  0.12979677  0.21776889  0.02724252     0.38200
N173        N  0.07957515  0.22979570  0.01971979    -0.88300
H174        H  0.10376850  0.20083631  0.45758925     0.19300
H175        H  0.25098676  0.21020915  0.11296863     0.19300
N176        N  0.27081845  0.16122577  0.05517390    -0.87400
H177        H  0.06253970  0.24814902  0.49344852     0.36700
H178        H  0.08066033  0.24907341  0.04720537     0.41800
H179        H  0.26843875  0.14057325  0.02843178     0.41400
H180        H  0.29949590  0.18177641  0.06029716     0.36300
C181        C  0.31021894  0.26336618  0.98647608    -0.25400
C182        C  0.36109157  0.25064826  0.49028367    -0.13500
C183        C  0.36558341  0.20834412  0.48365454     0.37100
C184        C  0.32458868  0.18294977  0.47543483    -0.24900
C185        C  0.27675209  0.19869315  0.46742261    -0.14100
C186        C  0.26832945  0.23765810  0.97059666     0.38200
N187        N  0.22004680  0.25701676  0.95742333    -0.88300
H188        H  0.30516986  0.29469787  0.99447798     0.19300
H189        H  0.32986967  0.15084031  0.47275603     0.19300
N190        N  0.41078638  0.19131578  0.48292422    -0.87400
H191        H  0.20914522  0.25431280  0.98546854     0.36700
H192        H  0.19326800  0.24499756  0.92526580     0.41800
H193        H  0.41386906  0.20314327  0.45265475     0.41400
H194        H  0.40826140  0.15975730  0.47845414     0.36300
N195        N  0.23183748  0.16749317  0.94284409    -0.02600
C196        C  0.18965938  0.16734718  0.95169470     0.00000
C197        C  0.15059404  0.14845886  0.91425501    -0.22900
C198        C  0.16907582  0.13530834  0.88254105    -0.23100
C199        C  0.21956673  0.14517137  0.90149577    -0.00100
H200        H  0.11340948  0.14206282  0.91167420     0.13700
H201        H  0.14960130  0.11498858  0.85266371     0.13700
N202        N  0.17272040  0.25385031  0.61023498    -0.02600
C203        C  0.16718327  0.24532383  0.65126357     0.00000
C204        C  0.19589583  0.27213772  0.68721682    -0.22900
C205        C  0.21811974  0.29842854  0.66769818    -0.23100
C206        C  0.20273316  0.28699041  0.62032966    -0.00100
H207        H  0.19541495  0.27567149  0.72215921     0.13700
H208        H  0.23974785  0.32493937  0.68505178     0.13700
N209        N  0.25167734  0.42419666  0.47732177    -0.02600
C210        C  0.23056751  0.46593767  0.95600098     0.00000
C211        C  0.19601525  0.47905208  0.97287939    -0.22900
C212        C  0.19957190  0.44562469  0.50955893    -0.23100
C213        C  0.22752927  0.41311316  0.50468092    -0.00100
H214        H  0.17654782  0.50824888  0.96619239     0.13700
H215        H  0.17643611  0.44590744  0.52923350     0.13700
N216        N  0.40015926  0.27849608  0.49264366    -0.02600
C217        C  0.45039740  0.27058812  0.51524072     0.00000
C218        C  0.47623996  0.29630450  0.49864118    -0.22900
C219        C  0.44076271  0.32181588  0.46556107    -0.23100
C220        C  0.39413860  0.31158345  0.46365287    -0.00100
H221        H  0.51660491  0.30005527  0.51360147     0.13700
H222        H  0.44918979  0.34929140  0.45112583     0.13700
N223        N  0.13542908  0.47346609  0.73855303    -0.02600
C224        C  0.18296735  0.48435887  0.74732273     0.00000
C225        C  0.20391821  0.45667296  0.72693518    -0.22900
C226        C  0.16854639  0.42706696  0.70632632    -0.23100
C227        C  0.12711551  0.43717946  0.71525760    -0.00100
H228        H  0.24284779  0.45508609  0.73210906     0.13700
H229        H  0.17568587  0.39803501  0.69345237     0.13700
N230        N  0.97022409  0.08673927  0.69772796    -0.02600
C231        C  0.95177070  0.11708594  0.66417454     0.00000
C232        C  0.40009602  0.11925344  0.64586284    -0.22900
C233        C  0.38564137  0.09232227  0.67158742    -0.23100
C234        C  0.42861510  0.07122462  0.70178109    -0.00100
H235        H  0.37631499  0.14270434  0.62176902     0.17100
H236        H  0.34868984  0.09089442  0.67145634     0.13700
N237        N  0.43538417  0.49456586  0.87108691    -0.02600
C238        C  0.42084721  0.50969527  0.90476030     0.00000
C239        C  0.44820262  0.49049198  0.94867510    -0.22900
C240        C  0.47885905  0.46179105  0.94153028    -0.23100
C241        C  0.46979306  0.46440454  0.89360748    -0.00100
H242        H  0.44199739  0.49335469  0.98092465     0.13700
H243        H  0.50076814  0.43838414  0.96700651     0.13700
N244        N  0.02728097  0.31458737  0.77414875    -0.02600
C245        C  0.52099954  0.27346453  0.76314548     0.00000
C246        C  0.50973876  0.25313758  0.79663814    -0.22900
C247        C  0.50534843  0.28228493  0.82698935    -0.23100
C248        C  0.51501102  0.31938116  0.81157082    -0.00100
H249        H  0.50361810  0.22084799  0.79786097     0.13700
H250        H  0.49460090  0.27718476  0.85620302     0.13700
In251      In  0.27547936  0.03938677  0.87323577     1.36900
C252        C  0.24654667  0.49166988  0.92590800     0.78500
O253        O  0.33991226  0.54058991  0.85259208    -0.60000
O254        O  0.35389612  0.02258436  0.92552496    -0.50900
C255        C  0.21396517  0.00979393  0.78728652     0.71200
O256        O  0.19743638  0.52664832  0.81569059    -0.45700
C257        C  0.25250596  0.11508923  0.89147294     0.75900
O258        O  0.22699378  0.52622120  0.91188897    -0.57600
O259        O  0.24202255  0.10276372  0.84922808    -0.47700
O260        O  0.27341762  0.97576341  0.90253766    -0.54000
C261        C  0.37267642  0.02400415  0.89540737     0.86000
O262        O  0.26069709  0.01308930  0.79993264    -0.55900
O263        O  0.28297263  0.09195327  0.92383913    -0.59200
In264      In  0.02784471  0.21644038  0.64705976     1.36900
C265        C  0.52510393  0.25333091  0.72189013     0.78500
O266        O  0.00506103  0.22238965  0.56764817    -0.60000
O267        O  0.46651349  0.25612888  0.59713039    -0.50900
C268        C  0.11981595  0.23043653  0.65172035     0.71200
O269        O  0.09924374  0.25026813  0.67378258    -0.45700
C270        C  0.98153110  0.14877837  0.65394883     0.75900
O271        O  0.01412776  0.27191166  0.68326975    -0.57600
O272        O  0.46060147  0.17509088  0.62388117    -0.47700
O273        O  0.53794903  0.21635024  0.72342029    -0.54000
C274        C  0.47513471  0.24810141  0.56103167     0.86000
O275        O  0.09509693  0.19987939  0.62934535    -0.55900
O276        O  0.02908338  0.15148605  0.67480840    -0.59200
C277        C  0.52906530  0.42355028  0.87143949    -0.25400
C278        C  0.48037308  0.42934634  0.86883533    -0.13500
C279        C  0.44373631  0.39894680  0.84727308     0.37100
C280        C  0.45600749  0.36492801  0.82681647    -0.24900
C281        C  0.50448993  0.35890179  0.82929015    -0.14100
C282        C  0.54162083  0.38831621  0.85238203     0.38200
N283        N  0.09036220  0.38367349  0.85557527    -0.88300
H284        H  0.55785618  0.44583062  0.88966272     0.19300
H285        H  0.42751562  0.34210762  0.80998397     0.19300
N286        N  0.39383276  0.40117136  0.84554969    -0.87400
H287        H  0.11469004  0.38450536  0.89226605     0.36700
H288        H  0.09932692  0.40795528  0.83885642     0.41800
H289        H  0.38815301  0.42702300  0.86244890     0.41400
H290        H  0.38991479  0.37626222  0.86475809     0.36300
C291        C  0.44416671  0.07129673  0.78771262    -0.25400
C292        C  0.43076926  0.04936529  0.74485927    -0.13500
C293        C  0.41481141  0.00898561  0.74275255     0.37100
C294        C  0.41489682  0.99053167  0.78425247    -0.24900
C295        C  0.43037226  0.01198882  0.82789894    -0.14100
C296        C  0.44464354  0.05289483  0.82917202     0.38200
N297        N  0.46133794  0.07546141  0.87311202    -0.88300
H298        H  0.45510935  0.10281259  0.78916250     0.19300
H299        H  0.40853452  0.45883722  0.78346205     0.19300
N300        N  0.39863492  0.98669115  0.69865321    -0.87400
H301        H  0.43791722  0.10121972  0.86681564     0.36700
H302        H  0.49799212  0.08526548  0.88187942     0.41800
H303        H  0.93426053  0.96267780  0.71439001     0.41400
H304        H  0.37462643  0.47097938  0.68990242     0.36300
C305        C  0.07227546  0.02369041  0.68588423    -0.25400
C306        C  0.09602441  0.00572138  0.73175109    -0.13500
C307        C  0.08173466  0.01821123  0.76834040     0.37100
C308        C  0.04361509  0.04816057  0.75772769    -0.24900
C309        C  0.01692875  0.06384546  0.71064139    -0.14100
C310        C  0.03218931  0.05150211  0.67461917     0.38200
N311        N  0.00525504  0.06518527  0.62574103    -0.88300
H312        H  0.08327397  0.01415172  0.65782102     0.19300
H313        H  0.03350840  0.05788482  0.78616835     0.19300
N314        N  0.10165104  0.49620526  0.81334497    -0.87400
H315        H  0.99132217  0.03971391  0.60383180     0.36700
H316        H  0.03082621  0.07943877  0.61542786     0.41800
H317        H  0.12921243  0.47438291  0.81651485     0.41400
H318        H  0.07307446  0.48074154  0.81790490     0.36300
C319        C  0.12698166  0.37293223  0.75734981    -0.25400
C320        C  0.09859362  0.40433515  0.72570086    -0.13500
C321        C  0.04520816  0.40323626  0.70640180     0.37100
C322        C  0.02206124  0.37339491  0.72246534    -0.24900
C323        C  0.05094870  0.34348413  0.75564582    -0.14100
C324        C  0.10362564  0.34211523  0.77159849     0.38200
N325        N  0.13311559  0.30977504  0.80304170    -0.88300
H326        H  0.16782488  0.37281232  0.77183681     0.19300
H327        H  0.98132680  0.37336280  0.70894765     0.19300
N328        N  0.01342907  0.43063911  0.66930008    -0.87400
H329        H  0.17134678  0.31275714  0.81091341     0.36700
H330        H  0.13016491  0.31248082  0.83568943     0.41800
H331        H  0.02536448  0.43082294  0.64165874     0.41400
H332        H  0.01642749  0.45966295  0.68370537     0.36300
C333        C  0.27046355  0.36942031  0.43217503    -0.25400
C334        C  0.28743864  0.40019309  0.46720496    -0.13500
C335        C  0.33985660  0.40628244  0.49322445     0.37100
C336        C  0.37358685  0.37799421  0.48884496    -0.24900
C337        C  0.35670503  0.34459325  0.45770488    -0.14100
C338        C  0.30507603  0.34221954  0.42622547     0.38200
N339        N  0.28773949  0.31160341  0.38970434    -0.88300
H340        H  0.23033599  0.36599156  0.41039921     0.19300
H341        H  0.41343817  0.38093459  0.51229632     0.19300
N342        N  0.36027604  0.43843471  0.52770506    -0.87400
H343        H  0.26037858  0.29454583  0.39445255     0.36700
H344        H  0.27004435  0.32634576  0.35628490     0.41800
H345        H  0.33217743  0.45625374  0.53093347     0.41400
H346        H  0.38024721  0.45752576  0.51502652     0.36300
C347        C  0.18005134  0.35493571  0.51241566    -0.25400
C348        C  0.22738264  0.37264435  0.52624695    -0.13500
C349        C  0.26801413  0.35842393  0.56903802     0.37100
C350        C  0.26003408  0.32800514  0.59702048    -0.24900
C351        C  0.21192248  0.31195310  0.58434822    -0.14100
C352        C  0.17167063  0.32581850  0.54146643     0.38200
N353        N  0.12107068  0.31396346  0.52961223    -0.88300
H354        H  0.14793088  0.36677963  0.48114294     0.19300
H355        H  0.29116169  0.31849428  0.63048506     0.19300
N356        N  0.31693840  0.37596718  0.58697184    -0.87400
H357        H  0.10044065  0.33989543  0.53065240     0.36700
H358        H  0.10576618  0.30393969  0.49389565     0.41800
H359        H  0.31339196  0.40754501  0.58872150     0.41400
H360        H  0.33263936  0.36863415  0.56318662     0.36300
C361        C  0.13624116  0.20127493  0.49219535    -0.25400
C362        C  0.18378965  0.18658760  0.49698277    -0.13500
C363        C  0.22389707  0.18514542  0.54403692     0.37100
C364        C  0.21835522  0.20578643  0.58161226    -0.24900
C365        C  0.17237036  0.22448100  0.57503583    -0.14100
C366        C  0.12974140  0.21886699  0.53093939     0.38200
N367        N  0.07963264  0.23010412  0.52442252    -0.88300
H368        H  0.10400095  0.19555333  0.95530250     0.19300
H369        H  0.25055554  0.20787435  0.61639425     0.19300
N370        N  0.26953048  0.16183571  0.55587258    -0.87400
H371        H  0.06258682  0.24635127  0.98755650     0.36700
H372        H  0.08087012  0.24760596  0.55328082     0.41800
H373        H  0.26670474  0.14216920  0.52813305     0.41400
H374        H  0.29897345  0.18202765  0.56263134     0.36300
C375        C  0.31588935  0.26548342  0.48992511    -0.25400
C376        C  0.35675988  0.25031478  0.98824558    -0.13500
C377        C  0.36275614  0.20855558  0.97982617     0.37100
C378        C  0.32267576  0.18163103  0.97009754    -0.24900
C379        C  0.27426925  0.19540148  0.96267362    -0.14100
C380        C  0.27296620  0.24121408  0.47513998     0.38200
N381        N  0.22597851  0.26202309  0.46403280    -0.88300
H382        H  0.31270297  0.29699452  0.49840679     0.19300
H383        H  0.32906555  0.14987317  0.96592296     0.19300
N384        N  0.40858809  0.19373479  0.97852799    -0.87400
H385        H  0.21389950  0.25634385  0.49076525     0.36700
H386        H  0.19914298  0.25317019  0.43011126     0.41800
H387        H  0.41122081  0.20735837  0.94889029     0.41400
H388        H  0.40721989  0.16236585  0.97248460     0.36300
N389        N  0.23702217  0.67115815  0.44584069    -0.02600
C390        C  0.19403708  0.67128523  0.45319122     0.00000
C391        C  0.15499884  0.65446053  0.41371262    -0.22900
C392        C  0.17454107  0.64207539  0.38249401    -0.23100
C393        C  0.22560600  0.64996010  0.40400131    -0.00100
H394        H  0.11707067  0.64856912  0.40934705     0.13700
H395        H  0.15519353  0.62279753  0.35152244     0.13700
N396        N  0.17257103  0.75231039  0.10627227    -0.02600
C397        C  0.16763726  0.74521306  0.14800415     0.00000
C398        C  0.19584619  0.77322568  0.18247357    -0.22900
C399        C  0.21720143  0.79882395  0.16144091    -0.23100
C400        C  0.20181107  0.78595143  0.11448989    -0.00100
H401        H  0.19603168  0.77768695  0.21756368     0.13700
H402        H  0.23844575  0.82578487  0.17765923     0.13700
N403        N  0.24226249  0.92122116  0.96423031    -0.02600
C404        C  0.23482767  0.96648730  0.46582190     0.00000
C405        C  0.20212206  0.97966194  0.48485326    -0.22900
C406        C  0.18357964  0.94017667  0.98947548    -0.23100
C407        C  0.21726160  0.90982964  0.99060021    -0.00100
H408        H  0.18356305  0.00916621  0.47972624     0.13700
H409        H  0.15824604  0.93961703  0.00683092     0.13700
N410        N  0.39659502  0.77699181  0.99095362    -0.02600
C411        C  0.44698761  0.76913130  0.01257453     0.00000
C412        C  0.47218972  0.79424815  0.99464455    -0.22900
C413        C  0.43634842  0.81959766  0.96185932    -0.23100
C414        C  0.39016962  0.80941089  0.96095218    -0.00100
H415        H  0.51261073  0.79744509  0.00832997     0.13700
H416        H  0.44429455  0.84662254  0.94633068     0.13700
N417        N  0.13663321  0.97468176  0.24730564    -0.02600
C418        C  0.18437064  0.98535251  0.25676615     0.00000
C419        C  0.20563016  0.95806235  0.23633186    -0.22900
C420        C  0.16997845  0.92891252  0.21452860    -0.23100
C421        C  0.12817081  0.93890345  0.22298271    -0.00100
H422        H  0.24470948  0.95648985  0.24197428     0.13700
H423        H  0.17692456  0.90023059  0.20080701     0.13700
N424        N  0.97914262  0.58425290  0.20501684    -0.02600
C425        C  0.96004760  0.61248422  0.16871583     0.00000
C426        C  0.40712949  0.62477138  0.15702306    -0.22900
C427        C  0.39490324  0.60048450  0.18653026    -0.23100
C428        C  0.43833379  0.57946682  0.21556591    -0.00100
H429        H  0.38254723  0.64752510  0.13227085     0.17100
H430        H  0.35903324  0.60013520  0.18879315     0.13700
N431        N  0.43479014  0.99549271  0.37471374    -0.02600
C432        C  0.42083829  0.00845096  0.40957090     0.00000
C433        C  0.44719119  0.98642590  0.45161437    -0.22900
C434        C  0.47670728  0.95823054  0.44188077    -0.23100
C435        C  0.46802880  0.96405096  0.39437017    -0.00100
H436        H  0.44088418  0.98715153  0.48392446     0.13700
H437        H  0.49751333  0.93317965  0.46511499     0.13700
N438        N  0.02298255  0.81368666  0.27166794    -0.02600
C439        C  0.52241018  0.77758670  0.25880629     0.00000
C440        C  0.50634826  0.75731998  0.28900379    -0.22900
C441        C  0.49825565  0.78640121  0.31726422    -0.23100
C442        C  0.51029479  0.82349826  0.30387965    -0.00100
H443        H  0.49898456  0.72513520  0.28891461     0.13700
H444        H  0.48363605  0.78123676  0.34376955     0.13700
In445      In  0.28353117  0.54140071  0.38459613     1.36900
C446        C  0.25043236  0.99276227  0.43573128     0.78500
O447        O  0.33980451  0.03893482  0.35880087    -0.60000
O448        O  0.36316640  0.52796215  0.43730454    -0.50900
C449        C  0.22272882  0.50841578  0.30077405     0.71200
O450        O  0.20023304  0.02207407  0.32892089    -0.45700
C451        C  0.25800610  0.61769601  0.39707059     0.75900
O452        O  0.23348131  0.02850980  0.42514849    -0.57600
O453        O  0.24947085  0.60373247  0.35594576    -0.47700
O454        O  0.28472895  0.47899571  0.41769155    -0.54000
C455        C  0.38068959  0.52724639  0.40619607     0.86000
O456        O  0.26820954  0.51589909  0.31107829    -0.55900
O457        O  0.28698734  0.59544292  0.43135994    -0.59200
In458      In  0.03065852  0.71384940  0.14777057     1.36900
C459        C  0.52875322  0.75722480  0.21889207     0.78500
O460        O  0.00984050  0.72300691  0.06920705    -0.60000
O461        O  0.46671768  0.75646778  0.09551948    -0.50900
C462        C  0.12207140  0.72831873  0.15082701     0.71200
O463        O  0.10454700  0.74483615  0.17765128    -0.45700
C464        C  0.98848666  0.64449938  0.15695097     0.75900
O465        O  0.01872518  0.77117673  0.18294360    -0.57600
O466        O  0.46366031  0.67730899  0.12735493    -0.47700
O467        O  0.54109888  0.72007734  0.22128282    -0.54000
C468        C  0.47325682  0.74738900  0.05857881     0.86000
O469        O  0.09533994  0.69978884  0.12546903    -0.55900
O470        O  0.03577535  0.64905255  0.17787714    -0.59200
C471        C  0.52533015  0.92617526  0.36677782    -0.25400
C472        C  0.47739140  0.93092554  0.36634952    -0.13500
C473        C  0.44035610  0.90107165  0.34362474     0.37100
C474        C  0.45182133  0.86815025  0.32106111    -0.24900
C475        C  0.49980792  0.86278234  0.32206631    -0.14100
C476        C  0.53697051  0.89213974  0.34511417     0.38200
N477        N  0.08173367  0.88206994  0.35267368    -0.88300
H478        H  0.55433286  0.94816508  0.38548613     0.19300
H479        H  0.42312948  0.84555916  0.30381446     0.19300
N480        N  0.39088327  0.90267849  0.34295853    -0.87400
H481        H  0.10502153  0.88217075  0.38969561     0.36700
H482        H  0.09165689  0.90670376  0.33713066     0.41800
H483        H  0.38525144  0.92826595  0.36024088     0.41400
H484        H  0.38777973  0.87741237  0.36217726     0.36300
C485        C  0.45046961  0.57824428  0.30059192    -0.25400
C486        C  0.44175858  0.55668745  0.25834069    -0.13500
C487        C  0.43003610  0.51531948  0.25562450     0.37100
C488        C  0.42795186  0.49579564  0.29546256    -0.24900
C489        C  0.43872294  0.51672691  0.33881480    -0.14100
C490        C  0.44969020  0.55859294  0.34089711     0.38200
N491        N  0.46144584  0.58104758  0.38434880    -0.88300
H492        H  0.45831405  0.61049054  0.30238912     0.19300
H493        H  0.40273235  0.96387632  0.28450422     0.19300
N494        N  0.42016235  0.49311066  0.21238438    -0.87400
H495        H  0.43553593  0.60528169  0.37646331     0.36700
H496        H  0.49743623  0.59315614  0.39530709     0.41800
H497        H  0.93380407  0.46101889  0.21633956     0.41400
H498        H  0.36472260  0.98090958  0.19150543     0.36300
C499        C  0.08531245  0.52265327  0.19848681    -0.25400
C500        C  0.10599276  0.50332384  0.24356335    -0.13500
C501        C  0.08865228  0.51448674  0.27844586     0.37100
C502        C  0.05076572  0.54483072  0.26689432    -0.24900
C503        C  0.02647371  0.56157816  0.21993820    -0.14100
C504        C  0.04458326  0.54993747  0.18559992     0.38200
N505        N  0.01949491  0.56310409  0.13637900    -0.88300
H506        H  0.09863278  0.51396782  0.17174009     0.19300
H507        H  0.03888520  0.55384393  0.29436528     0.19300
N508        N  0.10064449  0.99932888  0.32003354    -0.87400
H509        H  0.00697623  0.53735749  0.11464810     0.36700
H510        H  0.04585807  0.57758656  0.12734773     0.41800
H511        H  0.12654649  0.97594533  0.32347526     0.41400
H512        H  0.07046067  0.98553124  0.32352662     0.36300
C513        C  0.12483279  0.87217495  0.25879884    -0.25400
C514        C  0.09792353  0.90598701  0.23093167    -0.13500
C515        C  0.04453399  0.90701496  0.21327211     0.37100
C516        C  0.02025365  0.87592536  0.22613104    -0.24900
C517        C  0.04774601  0.84325491  0.25517685    -0.14100
C518        C  0.10033806  0.84077981  0.27070993     0.38200
N519        N  0.12880357  0.80709122  0.30018534    -0.88300
H520        H  0.16561029  0.87072808  0.27270134     0.19300
H521        H  0.97965924  0.87736328  0.21381038     0.19300
N522        N  0.01357177  0.93805008  0.18115902    -0.87400
H523        H  0.16716489  0.80961732  0.30840143     0.36700
H524        H  0.12583931  0.80860686  0.33294655     0.41800
H525        H  0.02573885  0.94308765  0.15418647     0.41400
H526        H  0.01631579  0.96456100  0.20067326     0.36300
C527        C  0.26441241  0.86496305  0.92365709    -0.25400
C528        C  0.27958422  0.89761477  0.95621470    -0.13500
C529        C  0.33150745  0.90532350  0.98248083     0.37100
C530        C  0.36669443  0.87680532  0.98127079    -0.24900
C531        C  0.35152632  0.84177440  0.95264861    -0.14100
C532        C  0.30040447  0.83767778  0.92050779     0.38200
N533        N  0.28503838  0.80546927  0.88592062    -0.88300
H534        H  0.22457906  0.86020356  0.90166303     0.19300
H535        H  0.40626143  0.88114822  0.00483654     0.19300
N536        N  0.34986814  0.93999215  0.01342162    -0.87400
H537        H  0.25746819  0.78869258  0.89055989     0.36700
H538        H  0.26808175  0.81875047  0.85155038     0.41800
H539        H  0.32057095  0.95807583  0.01388674     0.41400
H540        H  0.36949643  0.95794638  0.99920413     0.36300
C541        C  0.17851111  0.84729355  0.00091044    -0.25400
C542        C  0.22195078  0.87070130  0.01649626    -0.13500
C543        C  0.26135695  0.86254788  0.06269405     0.37100
C544        C  0.25615820  0.83145456  0.09161725    -0.24900
C545        C  0.21078673  0.81007437  0.07739735    -0.14100
C546        C  0.17165492  0.81870651  0.03135992     0.38200
N547        N  0.12259107  0.80242066  0.01701305    -0.88300
H548        H  0.14703264  0.85444855  0.96667110     0.19300
H549        H  0.28641542  0.82626442  0.12719365     0.19300
N550        N  0.30512093  0.88735141  0.08300925    -0.87400
H551        H  0.09741107  0.82658145  0.01287167     0.36700
H552        H  0.11220836  0.78936289  0.98302108     0.41800
H553        H  0.29364857  0.91775547  0.08197024     0.41400
H554        H  0.32512045  0.88401942  0.06212052     0.36300
C555        C  0.13561373  0.69382185  0.99176208    -0.25400
C556        C  0.18356510  0.68095246  0.99589264    -0.13500
C557        C  0.22468853  0.68217519  0.04225234     0.37100
C558        C  0.21920590  0.70399851  0.07910714    -0.24900
C559        C  0.17266668  0.72153666  0.07261583    -0.14100
C560        C  0.12947397  0.71300476  0.02987055     0.38200
N561        N  0.07940719  0.72436266  0.02342526    -0.88300
H562        H  0.10764149  0.69714634  0.45705823     0.19300
H563        H  0.25191463  0.70810602  0.11312632     0.19300
N564        N  0.27133780  0.66029852  0.05422545    -0.87400
H565        H  0.06577135  0.74680082  0.49034578     0.36700
H566        H  0.08118239  0.74455893  0.05032145     0.41800
H567        H  0.26909772  0.64036941  0.02692536     0.41400
H568        H  0.29971206  0.68137766  0.06002986     0.36300
C569        C  0.31173478  0.76299004  0.98699809    -0.25400
C570        C  0.36176543  0.75364736  0.49245917    -0.13500
C571        C  0.36771035  0.71211445  0.48322648     0.37100
C572        C  0.32777091  0.68519346  0.47342355    -0.24900
C573        C  0.27947990  0.69886081  0.46655162    -0.14100
C574        C  0.26900016  0.73821832  0.97102989     0.38200
N575        N  0.22117218  0.75834815  0.95778333    -0.88300
H576        H  0.30769438  0.79453087  0.99492893     0.19300
H577        H  0.33419562  0.65361760  0.46854272     0.19300
N578        N  0.41331673  0.69756199  0.48120426    -0.87400
H579        H  0.20679252  0.75139439  0.98250344     0.36700
H580        H  0.19622792  0.74946551  0.92307474     0.41800
H581        H  0.41575484  0.71173374  0.45174641     0.41400
H582        H  0.41191637  0.66630023  0.47458024     0.36300
N583        N  0.23044151  0.66911528  0.94207519    -0.02600
C584        C  0.18840566  0.66809389  0.95095631     0.00000
C585        C  0.14910666  0.65064565  0.91224107    -0.22900
C586        C  0.16747387  0.63941410  0.87973858    -0.23100
C587        C  0.21816308  0.64867477  0.89963071    -0.00100
H588        H  0.11193865  0.64356905  0.90922249     0.13700
H589        H  0.14795157  0.62003948  0.84890056     0.13700
N590        N  0.17340973  0.75282269  0.60899632    -0.02600
C591        C  0.16865134  0.74292763  0.65018264     0.00000
C592        C  0.19787636  0.76884734  0.68697113    -0.22900
C593        C  0.21955980  0.79606617  0.66799600    -0.23100
C594        C  0.20344882  0.78609878  0.62008890    -0.00100
H595        H  0.19847196  0.77097961  0.72247300     0.13700
H596        H  0.24172403  0.82206140  0.68632327     0.13700
N597        N  0.25033141  0.92761082  0.48006721    -0.02600
C598        C  0.22538914  0.95941219  0.94781544     0.00000
C599        C  0.18889794  0.97162319  0.96262396    -0.22900
C600        C  0.19762763  0.94800999  0.51190620    -0.23100
C601        C  0.22788903  0.91645540  0.50883279    -0.00100
H602        H  0.16882282  0.00056608  0.95532933     0.13700
H603        H  0.17425349  0.94778052  0.53133233     0.13700
N604        N  0.40021138  0.78301205  0.49721196    -0.02600
C605        C  0.45059890  0.77556727  0.51957014     0.00000
C606        C  0.47604656  0.80107344  0.50238344    -0.22900
C607        C  0.44016589  0.82629449  0.46925874    -0.23100
C608        C  0.39376423  0.81580046  0.46773608    -0.00100
H609        H  0.51649984  0.80397180  0.51616283     0.13700
H610        H  0.44806379  0.85346775  0.45390344     0.13700
N611        N  0.13376046  0.97461388  0.73931108    -0.02600
C612        C  0.18094681  0.98487873  0.74615663     0.00000
C613        C  0.19920145  0.95789908  0.72270063    -0.22900
C614        C  0.16235429  0.92937566  0.70187613    -0.23100
C615        C  0.12302933  0.93919664  0.71417197    -0.00100
H616        H  0.23728259  0.95605288  0.72550436     0.13700
H617        H  0.16738928  0.90092532  0.68646950     0.13700
N618        N  0.96850230  0.58392231  0.69517713    -0.02600
C619        C  0.95158787  0.61502814  0.66235960     0.00000
C620        C  0.40173867  0.61822824  0.64389982    -0.22900
C621        C  0.38722641  0.59117909  0.66943190    -0.23100
C622        C  0.43003961  0.56974081  0.69931205    -0.00100
H623        H  0.37811629  0.64199277  0.62028526     0.17100
H624        H  0.35041933  0.59007535  0.66967044     0.13700
N625        N  0.43761500  0.99133455  0.87208376    -0.02600
C626        C  0.42218010  0.00423860  0.90595700     0.00000
C627        C  0.44753523  0.98210295  0.94815919    -0.22900
C628        C  0.47776163  0.95396141  0.93944223    -0.23100
C629        C  0.47059630  0.95987697  0.89239164    -0.00100
H630        H  0.44007449  0.98268200  0.97982375     0.13700
H631        H  0.49793609  0.92881229  0.96287254     0.13700
N632        N  0.02840548  0.81297563  0.77417869    -0.02600
C633        C  0.52905361  0.77070856  0.76449135     0.00000
C634        C  0.51768623  0.75021437  0.79781902    -0.22900
C635        C  0.51143676  0.77938773  0.82720140    -0.23100
C636        C  0.52001801  0.81669038  0.81130876    -0.00100
H637        H  0.51217372  0.71783467  0.79922089     0.13700
H638        H  0.49995659  0.77412805  0.85590470     0.13700
In639      In  0.27393176  0.54247447  0.87345347     1.36900
C640        C  0.24462385  0.98665281  0.92147811     0.78500
O641        O  0.34330865  0.03877587  0.85486908    -0.60000
O642        O  0.35382176  0.52993348  0.92545081    -0.50900
C643        C  0.21420531  0.51004013  0.78843328     0.71200
O644        O  0.19868153  0.02549456  0.81609977    -0.45700
C645        C  0.25085702  0.61797363  0.89066671     0.75900
O646        O  0.23298221  0.02382096  0.91636243    -0.57600
O647        O  0.24283295  0.60640789  0.84870451    -0.47700
O648        O  0.28038647  0.48211165  0.91255936    -0.54000
C649        C  0.37100564  0.52890845  0.89405321     0.86000
O650        O  0.26110363  0.51322719  0.80253884    -0.55900
O651        O  0.27880996  0.59403422  0.92344621    -0.59200
In652      In  0.02985236  0.71368270  0.64717070     1.36900
C653        C  0.53245117  0.75093622  0.72278949     0.78500
O654        O  0.00977828  0.72472735  0.56897385    -0.60000
O655        O  0.47069982  0.75785568  0.60165901    -0.50900
C656        C  0.12234555  0.72612804  0.65161161     0.71200
O657        O  0.10637867  0.74034496  0.68074137    -0.45700
C658        C  0.98264513  0.64573532  0.65219593     0.75900
O659        O  0.02016901  0.77063416  0.68432996    -0.57600
O660        O  0.46245247  0.67494928  0.62375334    -0.47700
O661        O  0.54284617  0.71353737  0.72290572    -0.54000
C662        C  0.47616392  0.75100335  0.56360207     0.86000
O663        O  0.09334736  0.70036048  0.62286196    -0.55900
O664        O  0.03018814  0.64810885  0.67378632    -0.59200
C665        C  0.52906435  0.92260965  0.86604816    -0.25400
C666        C  0.48091777  0.92661843  0.86518022    -0.13500
C667        C  0.44556914  0.89516053  0.84484419     0.37100
C668        C  0.45946346  0.86065340  0.82644167    -0.24900
C669        C  0.50770909  0.85613282  0.82783629    -0.14100
C670        C  0.54280363  0.88760349  0.84757753     0.38200
N671        N  0.09031508  0.88449724  0.85080631    -0.88300
H672        H  0.55674481  0.94598228  0.88287726     0.19300
H673        H  0.43225770  0.83662096  0.81145189     0.19300
N674        N  0.39541060  0.89679322  0.84250517    -0.87400
H675        H  0.11640640  0.88647866  0.88689452     0.36700
H676        H  0.09646816  0.90886810  0.83220222     0.41800
H677        H  0.38761290  0.92402176  0.85558312     0.41400
H678        H  0.39274848  0.87353522  0.86449988     0.36300
C679        C  0.44083996  0.57245279  0.78378277    -0.25400
C680        C  0.43213221  0.54882750  0.74296879    -0.13500
C681        C  0.42028433  0.50757074  0.74305866     0.37100
C682        C  0.41818292  0.49045414  0.78430445    -0.24900
C683        C  0.42870418  0.51376616  0.82609901    -0.14100
C684        C  0.43984196  0.55529900  0.82524952     0.38200
N685        N  0.45192085  0.57995719  0.86714201    -0.88300
H686        H  0.44908517  0.60448273  0.78361936     0.19300
H687        H  0.40296172  0.95937868  0.78227030     0.19300
N688        N  0.41076457  0.48296999  0.70156633    -0.87400
H689        H  0.42630382  0.60449821  0.85768928     0.36700
H690        H  0.48806389  0.59150188  0.87725769     0.41800
H691        H  0.91503660  0.46320068  0.70674353     0.41400
H692        H  0.36162049  0.97738979  0.68907619     0.36300
C693        C  0.07269810  0.52182961  0.68461243    -0.25400
C694        C  0.09605141  0.50337574  0.73026131    -0.13500
C695        C  0.07970386  0.51416346  0.76596022     0.37100
C696        C  0.04034828  0.54310771  0.75492016    -0.24900
C697        C  0.01457812  0.55981286  0.70817340    -0.14100
C698        C  0.03135316  0.54860500  0.67277242     0.38200
N699        N  0.00490837  0.56247719  0.62391843    -0.88300
H700        H  0.08501989  0.51343467  0.65708586     0.19300
H701        H  0.02948832  0.55180791  0.78313479     0.19300
N702        N  0.10385071  0.00048328  0.81585468    -0.87400
H703        H  0.99231415  0.53702430  0.60168244     0.36700
H704        H  0.03046500  0.57772043  0.61443973     0.41800
H705        H  0.12975753  0.97738150  0.81840494     0.41400
H706        H  0.07492019  0.98653826  0.82140675     0.36300
C707        C  0.12410724  0.87261603  0.75236688    -0.25400
C708        C  0.09517722  0.90595348  0.72510567    -0.13500
C709        C  0.04222910  0.90620173  0.71072734     0.37100
C710        C  0.02048782  0.87482092  0.72615151    -0.24900
C711        C  0.05009732  0.84262558  0.75455943    -0.14100
C712        C  0.10210798  0.84088202  0.76671621     0.38200
N713        N  0.13263375  0.80754111  0.79520856    -0.88300
H714        H  0.16459022  0.87178709  0.76378149     0.19300
H715        H  0.98031740  0.87568947  0.71642890     0.19300
N716        N  0.00924798  0.93685989  0.67962063    -0.87400
H717        H  0.17014914  0.81054228  0.80072297     0.36700
H718        H  0.13246188  0.80899578  0.82925420     0.41800
H719        H  0.01732130  0.94049928  0.64978069     0.41400
H720        H  0.01503553  0.96404609  0.69848901     0.36300
C721        C  0.26969413  0.87317566  0.43516179    -0.25400
C722        C  0.28632295  0.90408664  0.46996953    -0.13500
C723        C  0.33856349  0.91036041  0.49638876     0.37100
C724        C  0.37259757  0.88206053  0.49261851    -0.24900
C725        C  0.35605746  0.84853288  0.46162128    -0.14100
C726        C  0.30456063  0.84595448  0.42979688     0.38200
N727        N  0.28762290  0.81531919  0.39327966    -0.88300
H728        H  0.22962583  0.86961581  0.41319128     0.19300
H729        H  0.41237008  0.88516540  0.51626204     0.19300
N730        N  0.35835933  0.94289475  0.53044426    -0.87400
H731        H  0.25999262  0.79833278  0.39761729     0.36700
H732        H  0.27029474  0.83006084  0.35980888     0.41800
H733        H  0.32981778  0.96103248  0.53240205     0.41400
H734        H  0.37895013  0.96161914  0.51807388     0.36300
C735        C  0.18194519  0.85644514  0.51427643    -0.25400
C736        C  0.22856471  0.87564149  0.53005436    -0.13500
C737        C  0.26886096  0.86144252  0.57312164     0.37100
C738        C  0.26107473  0.82940969  0.59938858    -0.24900
C739        C  0.21325275  0.81211013  0.58510254    -0.14100
C740        C  0.17351565  0.82602346  0.54187381     0.38200
N741        N  0.12309587  0.81281873  0.52816821    -0.88300
H742        H  0.15014576  0.86799394  0.48249039     0.19300
H743        H  0.29189716  0.81977597  0.63300208     0.19300
N744        N  0.31694687  0.88055107  0.59307066    -0.87400
H745        H  0.10125190  0.83803234  0.52893553     0.36700
H746        H  0.10929774  0.80326459  0.49232278     0.41800
H747        H  0.31170629  0.91178584  0.59605916     0.41400
H748        H  0.33385891  0.87561146  0.56973558     0.36300
C749        C  0.13987068  0.69880128  0.49176284    -0.25400
C750        C  0.18798855  0.68483326  0.49736701    -0.13500
C751        C  0.22810984  0.68547196  0.54442666     0.37100
C752        C  0.22130557  0.70634266  0.58119071    -0.24900
C753        C  0.17454661  0.72397965  0.57385352    -0.14100
C754        C  0.13246659  0.71743866  0.52953163     0.38200
N755        N  0.08203862  0.72904948  0.52165779    -0.88300
H756        H  0.10256443  0.69127079  0.95779786     0.19300
H757        H  0.25322023  0.70952322  0.61600022     0.19300
N758        N  0.27529816  0.66424633  0.55714852    -0.87400
H759        H  0.06106527  0.74010956  0.99076523     0.36700
H760        H  0.08267619  0.74707796  0.54991289     0.41800
H761        H  0.27392741  0.64412845  0.53030842     0.41400
H762        H  0.30320422  0.68575834  0.56297079     0.36300
C763        C  0.31551856  0.76654671  0.49139332    -0.25400
C764        C  0.35772000  0.74869986  0.98835669    -0.13500
C765        C  0.36268647  0.70656417  0.98109443     0.37100
C766        C  0.32191679  0.68068024  0.97200683    -0.24900
C767        C  0.27377850  0.69580181  0.96357364    -0.14100
C768        C  0.27362141  0.74095193  0.47519396     0.38200
N769        N  0.22545188  0.76032971  0.46249515    -0.88300
H770        H  0.31067956  0.79770996  0.50012847     0.19300
H771        H  0.32749841  0.64864043  0.96878931     0.19300
N772        N  0.40806375  0.69027180  0.98009239    -0.87400
H773        H  0.21376391  0.75606870  0.48978125     0.36700
H774        H  0.19906143  0.74962345  0.42931430     0.41800
H775        H  0.41093452  0.70275361  0.95002264     0.41400
H776        H  0.40585460  0.65876880  0.97495167     0.36300
N777        N  0.73042797  0.17069091  0.44821544    -0.02600
C778        C  0.68846235  0.16990432  0.45713346     0.00000
C779        C  0.64889481  0.15274433  0.41840843    -0.22900
C780        C  0.66696363  0.14163793  0.38568399    -0.23100
C781        C  0.71768159  0.15071376  0.40549040    -0.00100
H782        H  0.61158528  0.14612731  0.41532277     0.13700
H783        H  0.64711416  0.12269863  0.35450601     0.13700
N784        N  0.67022198  0.25058699  0.10474599    -0.02600
C785        C  0.66717083  0.24168090  0.14686569     0.00000
C786        C  0.69746100  0.26809685  0.18252724    -0.22900
C787        C  0.71785238  0.29477811  0.16164350    -0.23100
C788        C  0.69994067  0.28378190  0.11393018    -0.00100
H789        H  0.69923194  0.27117310  0.21839374     0.13700
H790        H  0.73997406  0.32121699  0.17845584     0.13700
N791        N  0.74358640  0.42425583  0.97131119    -0.02600
C792        C  0.73104811  0.46567058  0.46019889     0.00000
C793        C  0.69503170  0.47927152  0.47497264    -0.22900
C794        C  0.68875680  0.44473759  0.00066766    -0.23100
C795        C  0.71882053  0.41277299  0.99798174    -0.00100
H796        H  0.67628607  0.50878483  0.46784268     0.13700
H797        H  0.66436277  0.44470202  0.01905239     0.13700
N798        N  0.89565475  0.27977104  0.99258999    -0.02600
C799        C  0.94621158  0.27252658  0.01458933     0.00000
C800        C  0.97111735  0.29784714  0.99656651    -0.22900
C801        C  0.93491539  0.32272180  0.96336741    -0.23100
C802        C  0.88878239  0.31225955  0.96246479    -0.00100
H803        H  0.01150847  0.30118920  0.01003995     0.13700
H804        H  0.94251770  0.34972497  0.94752659     0.13700
N805        N  0.64090687  0.47614164  0.24693627    -0.02600
C806        C  0.68850051  0.48626067  0.25517701     0.00000
C807        C  0.70806085  0.45910460  0.23302317    -0.22900
C808        C  0.67153276  0.43056534  0.21144292    -0.23100
C809        C  0.63097368  0.44085486  0.22166005    -0.00100
H810        H  0.74671014  0.45709043  0.23740815     0.13700
H811        H  0.67727961  0.40189908  0.19689466     0.13700
N812        N  0.46548174  0.08901971  0.19727796    -0.02600
C813        C  0.44843051  0.12053707  0.16506534     0.00000
C814        C  0.90270117  0.12303713  0.14926577    -0.22900
C815        C  0.88834763  0.09819019  0.17685679    -0.23100
C816        C  0.93101239  0.07695165  0.20725058    -0.00100
H817        H  0.87911739  0.14605252  0.12423840     0.17100
H818        H  0.85157115  0.09784197  0.17722824     0.13700
N819        N  0.94045809  0.49116902  0.37973750    -0.02600
C820        C  0.92603963  0.50470925  0.41405833     0.00000
C821        C  0.94969807  0.48150980  0.45563945    -0.22900
C822        C  0.97744730  0.45174499  0.44592950    -0.23100
C823        C  0.97068861  0.45796641  0.39903075    -0.00100
H824        H  0.94219361  0.48250500  0.48727873     0.13700
H825        H  0.99577471  0.42573623  0.46864724     0.13700
N826        N  0.52908373  0.31598807  0.27391946    -0.02600
C827        C  0.02235745  0.27234551  0.26074079     0.00000
C828        C  0.00747096  0.25142051  0.29138269    -0.22900
C829        C  0.00054889  0.27997733  0.32095056    -0.23100
C830        C  0.01226643  0.31734459  0.30793003    -0.00100
H831        H  0.00029662  0.21917516  0.29091515     0.13700
H832        H  0.98695647  0.27430088  0.34810331     0.13700
In833      In  0.77242142  0.04577600  0.37551843     1.36900
C834        C  0.75023036  0.49140333  0.43248784     0.78500
O835        O  0.84685421  0.53681940  0.36177420    -0.60000
O836        O  0.85125738  0.03069898  0.42846875    -0.50900
C837        C  0.71062993  0.01760244  0.28901702     0.71200
O838        O  0.70476061  0.52551565  0.32557526    -0.45700
C839        C  0.75002158  0.12049559  0.39556109     0.75900
O840        O  0.73642240  0.52796519  0.42340576    -0.57600
O841        O  0.74139601  0.10986009  0.35319697    -0.47700
O842        O  0.77422294  0.98166529  0.40510024    -0.54000
C843        C  0.86920856  0.03011820  0.39768131     0.86000
O844        O  0.75570394  0.02668514  0.29917699    -0.55900
O845        O  0.77803638  0.09598487  0.42756271    -0.59200
In846      In  0.52855273  0.21664118  0.14620177     1.36900
C847        C  0.02792138  0.25309175  0.21982904     0.78500
O848        O  0.50295749  0.22144414  0.06596559    -0.60000
O849        O  0.96664797  0.25697413  0.09735608    -0.50900
C850        C  0.62090418  0.22637379  0.14940412     0.71200
O851        O  0.60622838  0.24139695  0.17905791    -0.45700
C852        C  0.47923130  0.15110443  0.15433847     0.75900
O853        O  0.52038793  0.27402148  0.18349750    -0.57600
O854        O  0.96244257  0.17533732  0.12284893    -0.47700
O855        O  0.03910134  0.21584363  0.22044909    -0.54000
C856        C  0.97278066  0.24947279  0.05977661     0.86000
O857        O  0.59041052  0.20150874  0.12056680    -0.55900
O858        O  0.52691592  0.15084614  0.17115803    -0.59200
C859        C  0.02811853  0.41926722  0.37259612    -0.25400
C860        C  0.97977065  0.42482873  0.37084330    -0.13500
C861        C  0.94208941  0.39574722  0.34672629     0.37100
C862        C  0.95365061  0.36249304  0.32458662    -0.24900
C863        C  0.00206613  0.35643489  0.32678366    -0.14100
C864        C  0.03969066  0.38515584  0.35106155     0.38200
N865        N  0.59670036  0.38177434  0.36136637    -0.88300
H866        H  0.05747786  0.44072974  0.39221210     0.19300
H867        H  0.92458602  0.34039604  0.30638769     0.19300
N868        N  0.89175044  0.39875559  0.34381581    -0.87400
H869        H  0.62063418  0.38098745  0.39817311     0.36700
H870        H  0.60672293  0.40673132  0.34641581     0.41800
H871        H  0.88617394  0.42475889  0.36050483     0.41400
H872        H  0.88661597  0.37382963  0.36234811     0.36300
C873        C  0.94543677  0.07579545  0.29305432    -0.25400
C874        C  0.93224299  0.05464975  0.24967975    -0.13500
C875        C  0.91393011  0.01492254  0.24573792     0.37100
C876        C  0.91098043  0.99629297  0.28574277    -0.24900
C877        C  0.92643461  0.01667712  0.33004306    -0.14100
C878        C  0.94329714  0.05705309  0.33326493     0.38200
N879        N  0.95974533  0.07872424  0.37781375    -0.88300
H880        H  0.95803849  0.10693584  0.29583949     0.19300
H881        H  0.90938599  0.45998015  0.28956600     0.19300
N882        N  0.89841229  0.99342991  0.20116800    -0.87400
H883        H  0.93769202  0.10528785  0.37162912     0.36700
H884        H  0.99718737  0.08717712  0.38813627     0.41800
H885        H  0.42586062  0.96653096  0.21048097     0.41400
H886        H  0.87337615  0.47771990  0.19710439     0.36300
C887        C  0.56930309  0.02763589  0.18596157    -0.25400
C888        C  0.59263623  0.00870444  0.23127352    -0.13500
C889        C  0.57643961  0.01901173  0.26723266     0.37100
C890        C  0.53745100  0.04823431  0.25674393    -0.24900
C891        C  0.51161993  0.06520573  0.21012027    -0.14100
C892        C  0.52785838  0.05407019  0.17442147     0.38200
N893        N  0.50058571  0.06752309  0.12549782    -0.88300
H894        H  0.58169511  0.01976686  0.15833448     0.19300
H895        H  0.52657935  0.05671841  0.28506463     0.19300
N896        N  0.60929972  0.50125018  0.32294581    -0.87400
H897        H  0.48777275  0.04185813  0.10368075     0.36700
H898        H  0.52565223  0.08261732  0.11522364     0.41800
H899        H  0.63466736  0.47774928  0.32535457     0.41400
H900        H  0.57987499  0.48766951  0.32806116     0.36300
C901        C  0.62974758  0.37629483  0.26204146    -0.25400
C902        C  0.60181043  0.40809318  0.23097957    -0.13500
C903        C  0.54838535  0.40724795  0.21088126     0.37100
C904        C  0.52459578  0.37635804  0.22469727    -0.24900
C905        C  0.55305423  0.34555106  0.25670969    -0.14100
C906        C  0.60588291  0.34471560  0.27430184     0.38200
N907        N  0.63502347  0.31206654  0.30543305    -0.88300
H908        H  0.67064010  0.37637845  0.27746000     0.19300
H909        H  0.48380724  0.37636539  0.21061958     0.19300
N910        N  0.51730106  0.43633093  0.17566900    -0.87400
H911        H  0.67344714  0.31578476  0.31507202     0.36700
H912        H  0.63034164  0.31342728  0.33737901     0.41800
H913        H  0.52947654  0.43815662  0.14826909     0.41400
H914        H  0.52095741  0.46452634  0.19221473     0.36300
C915        C  0.76358912  0.36838592  0.92856163    -0.25400
C916        C  0.77982863  0.40065106  0.96156453    -0.13500
C917        C  0.83205008  0.40828858  0.98644542     0.37100
C918        C  0.86651594  0.37997172  0.98338614    -0.24900
C919        C  0.85040998  0.34487742  0.95497797    -0.14100
C920        C  0.79883707  0.34109839  0.92396227     0.38200
N921        N  0.78227513  0.30934470  0.88884309    -0.88300
H922        H  0.72354509  0.36386246  0.90741873     0.19300
H923        H  0.90632718  0.38415762  0.00611688     0.19300
N924        N  0.85162448  0.44171412  0.01919117    -0.87400
H925        H  0.75486343  0.29265755  0.89393459     0.36700
H926        H  0.76475241  0.32306947  0.85479499     0.41800
H927        H  0.82306297  0.45922297  0.02206311     0.41400
H928        H  0.87046198  0.46067744  0.00516864     0.36300
C929        C  0.67067646  0.35639635  0.00906464    -0.25400
C930        C  0.71848431  0.37198504  0.01922136    -0.13500
C931        C  0.76102142  0.35435226  0.05800821     0.37100
C932        C  0.75442662  0.32285777  0.08554505    -0.24900
C933        C  0.70621395  0.30929354  0.07691273    -0.14100
C934        C  0.66401849  0.32657293  0.03833584     0.38200
N935        N  0.61399171  0.31784400  0.03218369    -0.88300
H936        H  0.63736688  0.37047268  0.98104318     0.19300
H937        H  0.78709684  0.31067058  0.11603121     0.19300
N938        N  0.81084686  0.36951332  0.07321806    -0.87400
H939        H  0.59838700  0.34451090  0.03917005     0.36700
H940        H  0.59276732  0.31106986  0.99580863     0.41800
H941        H  0.81004184  0.40117992  0.07598922     0.41400
H942        H  0.82381946  0.36083847  0.04780827     0.36300
C943        C  0.63548907  0.19689878  0.98756259    -0.25400
C944        C  0.68309572  0.18140859  0.99364101    -0.13500
C945        C  0.72276446  0.18060106  0.04090970     0.37100
C946        C  0.71638584  0.20164296  0.07781286    -0.24900
C947        C  0.67034868  0.22097434  0.07002575    -0.14100
C948        C  0.62843696  0.21588823  0.02526516     0.38200
N949        N  0.57840963  0.22909775  0.01690711    -0.88300
H950        H  0.60299240  0.19539238  0.46261360     0.19300
H951        H  0.74812192  0.20388149  0.11289461     0.19300
N952        N  0.76899653  0.15791704  0.05347420    -0.87400
H953        H  0.56188090  0.24519725  0.49482724     0.36700
H954        H  0.57900530  0.24609027  0.04591896     0.41800
H955        H  0.76713924  0.13850849  0.02583430     0.41400
H956        H  0.79802430  0.17858378  0.06047569     0.36300
C957        C  0.81111635  0.26360297  0.98776232    -0.25400
C958        C  0.85671638  0.25104315  0.49217985    -0.13500
C959        C  0.86254928  0.20846472  0.48749130     0.37100
C960        C  0.82183126  0.18249807  0.47870314    -0.24900
C961        C  0.77345369  0.19764567  0.46920902    -0.14100
C962        C  0.76916180  0.23802587  0.97206372     0.38200
N963        N  0.72108762  0.25743617  0.95976686    -0.88300
H964        H  0.80629988  0.29490454  0.99598239     0.19300
H965        H  0.82754599  0.15024732  0.47666436     0.19300
N966        N  0.90884057  0.19156673  0.48920115    -0.87400
H967        H  0.70940457  0.25256224  0.98695560     0.36700
H968        H  0.69467813  0.24707174  0.92641367     0.41800
H969        H  0.91273142  0.20215672  0.45883966     0.41400
H970        H  0.90742464  0.15983753  0.48668036     0.36300
N971        N  0.73216980  0.16841671  0.94226350    -0.02600
C972        C  0.68923342  0.16801861  0.94963528     0.00000
C973        C  0.65025685  0.15113976  0.91021471    -0.22900
C974        C  0.66971348  0.13941173  0.87872334    -0.23100
C975        C  0.72068218  0.14779491  0.90004460    -0.00100
H976        H  0.61245408  0.14496187  0.90606855     0.13700
H977        H  0.65045166  0.12031942  0.84755070     0.13700
N978        N  0.67203417  0.25564514  0.61178352    -0.02600
C979        C  0.66683889  0.24682343  0.65293627     0.00000
C980        C  0.69396431  0.27448870  0.68843664    -0.22900
C981        C  0.71473327  0.30165618  0.66847988    -0.23100
C982        C  0.70023992  0.28991295  0.62126378    -0.00100
H983        H  0.69347584  0.27773225  0.72340389     0.13700
H984        H  0.73495514  0.32880622  0.68555995     0.13700
N985        N  0.74596505  0.42705752  0.47611963    -0.02600
C986        C  0.72893298  0.46336259  0.95743141     0.00000
C987        C  0.69523310  0.47666232  0.97517651    -0.22900
C988        C  0.68760258  0.44810177  0.50091436    -0.23100
C989        C  0.71962354  0.41652042  0.50160168    -0.00100
H990        H  0.67728983  0.50641491  0.97020156     0.13700
H991        H  0.66183182  0.44847082  0.51781000     0.13700
N992        N  0.89544288  0.27949447  0.49441915    -0.02600
C993        C  0.94588931  0.27182559  0.51580535     0.00000
C994        C  0.97082405  0.29752983  0.49819907    -0.22900
C995        C  0.93474633  0.32308477  0.46593195    -0.23100
C996        C  0.88873182  0.31272867  0.46535699    -0.00100
H997        H  0.01121940  0.30101923  0.51192896     0.13700
H998        H  0.94252006  0.35054990  0.45098698     0.13700
N999        N  0.63711516  0.47179150  0.74037921    -0.02600
C1000       C  0.68528143  0.48160308  0.75042456     0.00000
C1001       C  0.70616832  0.45329473  0.73068511    -0.22900
C1002       C  0.66988231  0.42452426  0.70898205    -0.23100
C1003       C  0.62804987  0.43566432  0.71682474    -0.00100
H1004       H  0.74534582  0.45079955  0.73682433     0.13700
H1005       H  0.67648286  0.39525319  0.69624044     0.13700
N1006       N  0.46932551  0.08386386  0.69506982    -0.02600
C1007       C  0.45166468  0.11415912  0.66136794     0.00000
C1008       C  0.90033788  0.12196362  0.64962270    -0.22900
C1009       C  0.88681098  0.09488174  0.67589041    -0.23100
C1010       C  0.93019167  0.07392811  0.70545456    -0.00100
H1011       H  0.87609991  0.14534640  0.62581016     0.17100
H1012       H  0.85023348  0.09325096  0.67655052     0.13700
N1013       N  0.93620464  0.49538065  0.87476491    -0.02600
C1014       C  0.92193312  0.50897579  0.90914027     0.00000
C1015       C  0.94848826  0.48764311  0.95173156    -0.22900
C1016       C  0.97827844  0.45922923  0.94274270    -0.23100
C1017       C  0.96958779  0.46422038  0.89513397    -0.00100
H1018       H  0.94193132  0.48875120  0.98389929     0.13700
H1019       H  0.99913894  0.43448596  0.96652460     0.13700
N1020       N  0.52432556  0.31397403  0.77219927    -0.02600
C1021       C  0.02386092  0.27413583  0.76509534     0.00000
C1022       C  0.00887962  0.25417021  0.79627095    -0.22900
C1023       C  0.00200093  0.28362639  0.82500880    -0.23100
C1024       C  0.01385088  0.32052637  0.81093541    -0.00100
H1025       H  0.00102256  0.22210074  0.79630676     0.13700
H1026       H  0.98790333  0.27888613  0.85197697     0.13700
In1027     In  0.77696548  0.04053581  0.87639815     1.36900
C1028       C  0.74593760  0.48957401  0.92839095     0.78500
O1029       O  0.84173993  0.54091687  0.85784699    -0.60000
O1030       O  0.85576237  0.02519509  0.92956730    -0.50900
C1031       C  0.71603226  0.00980167  0.79085093     0.71200
O1032       O  0.69881640  0.52459291  0.81802460    -0.45700
C1033       C  0.75327869  0.11631386  0.89216477     0.75900
O1034       O  0.72824205  0.52494257  0.91622319    -0.57600
O1035       O  0.74516491  0.10386109  0.85051191    -0.47700
O1036       O  0.77642477  0.97768621  0.90776232    -0.54000
C1037       C  0.87476466  0.02678433  0.89961664     0.86000
O1038       O  0.76290584  0.01285241  0.80421823    -0.55900
O1039       O  0.78142105  0.09292148  0.92561857    -0.59200
In1040     In  0.52817622  0.21423596  0.64683904     1.36900
C1041       C  0.02776776  0.25446155  0.72366650     0.78500
O1042       O  0.50874266  0.22123935  0.56819555    -0.60000
O1043       O  0.96608644  0.25877810  0.59880430    -0.50900
C1044       C  0.62092496  0.22913541  0.65395194     0.71200
O1045       O  0.60193230  0.24503913  0.67984065    -0.45700
C1046       C  0.48203746  0.14582545  0.65193485     0.75900
O1047       O  0.51430108  0.27083350  0.68192139    -0.57600
O1048       O  0.95970227  0.17815736  0.62622539    -0.47700
O1049       O  0.04257167  0.21802028  0.72515095    -0.54000
C1050       C  0.97226138  0.24977041  0.56163744     0.86000
O1051       O  0.59499698  0.20079355  0.62746335    -0.55900
O1052       O  0.52948640  0.14887382  0.67398391    -0.59200
C1053       C  0.02750535  0.42496749  0.86980965    -0.25400
C1054       C  0.97905978  0.43054845  0.86788197    -0.13500
C1055       C  0.94210728  0.40051192  0.84565241     0.37100
C1056       C  0.95432889  0.36643729  0.82523510    -0.24900
C1057       C  0.00285496  0.36030927  0.82777128    -0.14100
C1058       C  0.03981821  0.38992741  0.85025638     0.38200
N1059       N  0.59246029  0.38178241  0.85869648    -0.88300
H1060       H  0.05643207  0.44709041  0.88824714     0.19300
H1061       H  0.92578890  0.34364306  0.80845701     0.19300
N1062       N  0.89216155  0.40286843  0.84382556    -0.87400
H1063       H  0.61610979  0.38204404  0.89564667     0.36700
H1064       H  0.60227946  0.40620578  0.84282679     0.41800
H1065       H  0.88607019  0.42917331  0.85966237     0.41400
H1066       H  0.88846891  0.37840449  0.86382949     0.36300
C1067       C  0.94417270  0.07477420  0.79101172    -0.25400
C1068       C  0.93344053  0.05217622  0.74902113    -0.13500
C1069       C  0.92087456  0.01100111  0.74804565     0.37100
C1070       C  0.92019008  0.99284900  0.78932951    -0.24900
C1071       C  0.93278556  0.01499314  0.83218023    -0.14100
C1072       C  0.94455847  0.05652326  0.83256083     0.38200
N1073       N  0.95847293  0.08001358  0.87559360    -0.88300
H1074       H  0.95288566  0.10677608  0.79167222     0.19300
H1075       H  0.89760446  0.46396437  0.78446779     0.19300
N1076       N  0.90906448  0.98749065  0.70534926    -0.87400
H1077       H  0.93330647  0.10477027  0.86780507     0.36700
H1078       H  0.99457883  0.09137593  0.88496523     0.41800
H1079       H  0.42154670  0.96059824  0.70520585     0.41400
H1080       H  0.85625940  0.48242219  0.69140572     0.36300
C1081       C  0.57323914  0.02103691  0.68617889    -0.25400
C1082       C  0.59740134  0.00429892  0.73271761    -0.13500
C1083       C  0.58213894  0.01717682  0.76855673     0.37100
C1084       C  0.54292894  0.04637242  0.75661783    -0.24900
C1085       C  0.51618788  0.06093267  0.70900938    -0.14100
C1086       C  0.53202578  0.04792001  0.67364797     0.38200
N1087       N  0.50455843  0.05997766  0.62421896    -0.88300
H1088       H  0.58474637  0.01110260  0.65858984     0.19300
H1089       H  0.53233055  0.05655966  0.78455445     0.19300
N1090       N  0.60194911  0.49628063  0.81355902    -0.87400
H1091       H  0.49162344  0.03374231  0.60348952     0.36700
H1092       H  0.52952414  0.07435115  0.61321741     0.41800
H1093       H  0.62889207  0.47372386  0.81729670     0.41400
H1094       H  0.57238767  0.48162033  0.81729517     0.36300
C1095       C  0.62580830  0.37225569  0.75897711    -0.25400
C1096       C  0.59828865  0.40355645  0.72672472    -0.13500
C1097       C  0.54478527  0.40300948  0.70651538     0.37100
C1098       C  0.52063505  0.37282936  0.72103257    -0.24900
C1099       C  0.54873767  0.34268290  0.75434067    -0.14100
C1100       C  0.60159622  0.34158812  0.77230609     0.38200
N1101       N  0.63042808  0.30956741  0.80480143    -0.88300
H1102       H  0.66671030  0.37208965  0.77466271     0.19300
H1103       H  0.47982034  0.37302407  0.70667918     0.19300
N1104       N  0.51391641  0.43179003  0.67072784    -0.87400
H1105       H  0.66897260  0.31305071  0.81471474     0.36700
H1106       H  0.62534465  0.31207597  0.83644906     0.41800
H1107       H  0.52647064  0.43332253  0.64355714     0.41400
H1108       H  0.51717657  0.46013852  0.68681452     0.36300
C1109       C  0.76545173  0.37147624  0.43271120    -0.25400
C1110       C  0.78219878  0.40232946  0.46760066    -0.13500
C1111       C  0.83454404  0.40809658  0.49433018     0.37100
C1112       C  0.86831987  0.37915090  0.49109835    -0.24900
C1113       C  0.85145257  0.34573236  0.45990672    -0.14100
C1114       C  0.80010385  0.34390086  0.42754071     0.38200
N1115       N  0.78306132  0.31348402  0.39080220    -0.88300
H1116       H  0.72540925  0.36843962  0.41022119     0.19300
H1117       H  0.90812170  0.38193863  0.51480854     0.19300
N1118       N  0.85464428  0.44122515  0.52743982    -0.87400
H1119       H  0.75496470  0.29676499  0.39470451     0.36700
H1120       H  0.76647949  0.32842932  0.35744135     0.41800
H1121       H  0.82617551  0.45990625  0.52872462     0.41400
H1122       H  0.87547334  0.45919909  0.51458842     0.36300
C1123       C  0.67687387  0.35565288  0.51094890    -0.25400
C1124       C  0.72176260  0.37732660  0.52657395    -0.13500
C1125       C  0.76116589  0.36742489  0.57215630     0.37100
C1126       C  0.75491696  0.33612446  0.60016315    -0.24900
C1127       C  0.70902463  0.31552329  0.58528522    -0.14100
C1128       C  0.66962630  0.32599641  0.54010456     0.38200
N1129       N  0.62028234  0.31012662  0.52545027    -0.88300
H1130       H  0.64511217  0.36453459  0.47774432     0.19300
H1131       H  0.78519527  0.32967764  0.63538656     0.19300
N1132       N  0.80635861  0.39049842  0.59281741    -0.87400
H1133       H  0.59568702  0.33442441  0.52264986     0.36700
H1134       H  0.60931031  0.29823909  0.49083402     0.41800
H1135       H  0.79679887  0.42133932  0.59229996     0.41400
H1136       H  0.82614720  0.38599786  0.57194120     0.36300
C1137       C  0.63589180  0.19787039  0.49671091    -0.25400
C1138       C  0.68361070  0.18384145  0.50158206    -0.13500
C1139       C  0.72454179  0.18518285  0.54803075     0.37100
C1140       C  0.71918498  0.20792878  0.58436932    -0.24900
C1141       C  0.67274080  0.22602041  0.57727638    -0.14100
C1142       C  0.62974905  0.21778173  0.53430548     0.38200
N1143       N  0.57968203  0.22933177  0.52743378    -0.88300
H1144       H  0.60358727  0.19623720  0.95252132     0.19300
H1145       H  0.75166706  0.21180416  0.61861601     0.19300
N1146       N  0.77072355  0.16246953  0.56058254    -0.87400
H1147       H  0.56403314  0.24794834  0.98648923     0.36700
H1148       H  0.58119297  0.24919266  0.55455091     0.41800
H1149       H  0.76820732  0.14212416  0.53352057     0.41400
H1150       H  0.79950025  0.18303717  0.56609880     0.36300
C1151       C  0.81028393  0.26536898  0.48963068    -0.25400
C1152       C  0.85736201  0.25048123  0.98893305    -0.13500
C1153       C  0.86334876  0.20864025  0.98090488     0.37100
C1154       C  0.82324149  0.18186047  0.97138660    -0.24900
C1155       C  0.77486071  0.19582838  0.96380759    -0.14100
C1156       C  0.76806353  0.24022608  0.47499340     0.38200
N1157       N  0.72009265  0.25997008  0.46220493    -0.88300
H1158       H  0.80571617  0.29695211  0.49679507     0.19300
H1159       H  0.82949693  0.15009367  0.96712224     0.19300
N1160       N  0.90914813  0.19357373  0.97973049    -0.87400
H1161       H  0.70740664  0.25438032  0.48852510     0.36700
H1162       H  0.69421550  0.24971744  0.42852220     0.41800
H1163       H  0.91173948  0.20679843  0.94988282     0.41400
H1164       H  0.90783642  0.16212217  0.97421489     0.36300
N1165       N  0.73494697  0.67010356  0.44210151    -0.02600
C1166       C  0.69196125  0.66872708  0.44934113     0.00000
C1167       C  0.65353609  0.65150345  0.40967327    -0.22900
C1168       C  0.67342496  0.64062440  0.37828041    -0.23100
C1169       C  0.72421638  0.64956486  0.40002408    -0.00100
H1170       H  0.61592598  0.64426212  0.40526227     0.13700
H1171       H  0.65480403  0.62126594  0.34721590     0.13700
N1172       N  0.67258918  0.75177310  0.10479849    -0.02600
C1173       C  0.66865835  0.74332554  0.14662638     0.00000
C1174       C  0.69839852  0.76988865  0.18226342    -0.22900
C1175       C  0.71957492  0.79615668  0.16178304    -0.23100
C1176       C  0.70255526  0.78496516  0.11410657    -0.00100
H1177       H  0.69934118  0.77329415  0.21778685     0.13700
H1178       H  0.74156879  0.82257254  0.17888137     0.13700
N1179       N  0.74294984  0.92316068  0.96735711    -0.02600
C1180       C  0.72278924  0.96179268  0.44580455     0.00000
C1181       C  0.68325311  0.97197199  0.45720667    -0.22900
C1182       C  0.68192925  0.94162535  0.98979949    -0.23100
C1183       C  0.71624153  0.91143433  0.99198790    -0.00100
H1184       H  0.66207714  0.00041502  0.44942210     0.13700
H1185       H  0.65536081  0.94079828  0.00576561     0.13700
N1186       N  0.89763857  0.77845711  0.99498412    -0.02600
C1187       C  0.94797363  0.77049305  0.01716395     0.00000
C1188       C  0.97365774  0.79553411  0.99965287    -0.22900
C1189       C  0.93816545  0.82116360  0.96686982    -0.23100
C1190       C  0.89168506  0.81109502  0.96535817    -0.00100
H1191       H  0.01414779  0.79825701  0.01333980     0.13700
H1192       H  0.94648666  0.84811049  0.95150051     0.13700
N1193       N  0.63292946  0.97979167  0.23927056    -0.02600
C1194       C  0.67961226  0.99254691  0.24717580     0.00000
C1195       C  0.70094856  0.96671331  0.22526312    -0.22900
C1196       C  0.66687575  0.93622459  0.20459623    -0.23100
C1197       C  0.62569359  0.94418930  0.21465890    -0.00100
H1198       H  0.73955112  0.96681837  0.22942578     0.13700
H1199       H  0.67456412  0.90825666  0.19005374     0.13700
N1200       N  0.47738079  0.58934201  0.20469260    -0.02600
C1201       C  0.45799190  0.61833340  0.16939351     0.00000
C1202       C  0.90812878  0.61558737  0.15191000    -0.22900
C1203       C  0.89470370  0.58998986  0.17953957    -0.23100
C1204       C  0.93859290  0.57163318  0.21216451    -0.00100
H1205       H  0.88307493  0.63684837  0.12514083     0.17100
H1206       H  0.85741037  0.58728277  0.17834133     0.13700
N1207       N  0.93112139  0.99513376  0.37296127    -0.02600
C1208       C  0.91762445  0.00899749  0.40772348     0.00000
C1209       C  0.94136905  0.98553343  0.44910137    -0.22900
C1210       C  0.96794775  0.95524361  0.43868585    -0.23100
C1211       C  0.96059861  0.96152785  0.39166542    -0.00100
H1212       H  0.93471537  0.98683390  0.48118780     0.13700
H1213       H  0.98615308  0.92909142  0.46117294     0.13700
N1214       N  0.52515468  0.81813422  0.26788406    -0.02600
C1215       C  0.02023744  0.77327583  0.26218769     0.00000
C1216       C  0.00158758  0.75309154  0.29045497    -0.22900
C1217       C  0.99158534  0.78227191  0.31758872    -0.23100
C1218       C  0.00519543  0.81931018  0.30556011    -0.00100
H1219       H  0.99338752  0.72101022  0.28944618     0.13700
H1220       H  0.97459353  0.77721097  0.34226411     0.13700
In1221     In  0.78089552  0.54146734  0.38165582     1.36900
C1222       C  0.74267923  0.99060891  0.42164064     0.78500
O1223       O  0.83935114  0.04328590  0.35652800    -0.60000
O1224       O  0.86044155  0.52870488  0.43497303    -0.50900
C1225       C  0.72059449  0.51085983  0.29665603     0.71200
O1226       O  0.69621885  0.02708749  0.32087249    -0.45700
C1227       C  0.75725212  0.61778896  0.39368812     0.75900
O1228       O  0.72805562  0.02717966  0.41543313    -0.57600
O1229       O  0.74956839  0.60410976  0.35267778    -0.47700
O1230       O  0.78085363  0.47970032  0.41592907    -0.54000
C1231       C  0.87752405  0.52583252  0.40359245     0.86000
O1232       O  0.76716613  0.51498013  0.30926379    -0.55900
O1233       O  0.78528860  0.59531062  0.42820881    -0.59200
In1234     In  0.53038283  0.71600428  0.14481013     1.36900
C1235       C  0.02762657  0.75355371  0.22242537     0.78500
O1236       O  0.50707852  0.72082733  0.06524999    -0.60000
O1237       O  0.96420357  0.75251961  0.09839805    -0.50900
C1238       C  0.62217157  0.72820317  0.14864526     0.71200
O1239       O  0.60457761  0.74599776  0.17461832    -0.45700
C1240       C  0.48663011  0.64869687  0.15585906     0.75900
O1241       O  0.51912618  0.77421432  0.17888817    -0.57600
O1242       O  0.96529607  0.67252959  0.12753467    -0.47700
O1243       O  0.04007477  0.71650300  0.22418107    -0.54000
C1244       C  0.97366946  0.74721011  0.06228961     0.86000
O1245       O  0.59483100  0.69998764  0.12326350    -0.55900
O1246       O  0.53418027  0.65154944  0.17485425    -0.59200
C1247       C  0.01808169  0.92327162  0.36539524    -0.25400
C1248       C  0.96957648  0.92868562  0.36315118    -0.13500
C1249       C  0.93246669  0.89900192  0.33988119     0.37100
C1250       C  0.94493724  0.86506072  0.31935626    -0.24900
C1251       C  0.99379469  0.85892816  0.32257600    -0.14100
C1252       C  0.03071708  0.88842847  0.34588734     0.38200
N1253       N  0.58698392  0.88663117  0.34864498    -0.88300
H1254       H  0.04700074  0.94521028  0.38450996     0.19300
H1255       H  0.91633450  0.84245638  0.30188079     0.19300
N1256       N  0.88214300  0.90170171  0.33703164    -0.87400
H1257       H  0.61232575  0.88689701  0.38504481     0.36700
H1258       H  0.59493625  0.91152933  0.33204298     0.41800
H1259       H  0.87592207  0.92839008  0.35227775     0.41400
H1260       H  0.87791471  0.87753684  0.35707946     0.36300
C1261       C  0.95027276  0.57200546  0.29736970    -0.25400
C1262       C  0.94005561  0.54987490  0.25511234    -0.13500
C1263       C  0.92433766  0.50942802  0.25236644     0.37100
C1264       C  0.92181777  0.49098649  0.29265816    -0.24900
C1265       C  0.93477098  0.51229091  0.33611449    -0.14100
C1266       C  0.94783068  0.55363775  0.33770711     0.38200
N1267       N  0.95950789  0.57694390  0.38055014    -0.88300
H1268       H  0.96028182  0.60377426  0.29904216     0.19300
H1269       H  0.89676011  0.96575869  0.28207592     0.19300
N1270       N  0.91067172  0.48706390  0.20858414    -0.87400
H1271       H  0.93437376  0.60180132  0.37167820     0.36700
H1272       H  0.99599268  0.58812651  0.39195430     0.41800
H1273       H  0.44604144  0.46878573  0.22120488     0.41400
H1274       H  0.86067914  0.98541550  0.18984321     0.36300
C1275       C  0.57933108  0.52509655  0.19350687    -0.25400
C1276       C  0.60278214  0.50703077  0.23928431    -0.13500
C1277       C  0.58800011  0.51941989  0.27562770     0.37100
C1278       C  0.55031976  0.54988581  0.26495953    -0.24900
C1279       C  0.52367775  0.56556112  0.21773745    -0.14100
C1280       C  0.53874375  0.55247972  0.18181463     0.38200
N1281       N  0.51077084  0.56452050  0.13247167    -0.88300
H1282       H  0.59046033  0.51546039  0.16556373     0.19300
H1283       H  0.54047094  0.55994671  0.29345804     0.19300
N1284       N  0.59799179  0.00021841  0.31415948    -0.87400
H1285       H  0.49707738  0.53829685  0.11193203     0.36700
H1286       H  0.53558378  0.57837164  0.12086371     0.41800
H1287       H  0.62485868  0.97798987  0.31660644     0.41400
H1288       H  0.56901684  0.98503385  0.31833916     0.36300
C1289       C  0.62400050  0.87637648  0.24912230    -0.25400
C1290       C  0.59632862  0.91016384  0.22190152    -0.13500
C1291       C  0.54322660  0.91133502  0.20638317     0.37100
C1292       C  0.52018703  0.88075300  0.22168300    -0.24900
C1293       C  0.54847046  0.84786678  0.24987098    -0.14100
C1294       C  0.60062180  0.84517081  0.26279072     0.38200
N1295       N  0.62993726  0.81149819  0.29161264    -0.88300
H1296       H  0.66460107  0.87496900  0.26144016     0.19300
H1297       H  0.47983944  0.88223007  0.21094763     0.19300
N1298       N  0.51121948  0.94129525  0.17294608    -0.87400
H1299       H  0.66782663  0.81390662  0.29806377     0.36700
H1300       H  0.62883901  0.81316505  0.32523458     0.41800
H1301       H  0.52998599  0.95546724  0.15501875     0.41400
H1302       H  0.50130757  0.96304958  0.19240282     0.36300
C1303       C  0.76568232  0.86675406  0.92733067    -0.25400
C1304       C  0.78057910  0.89947159  0.95978343    -0.13500
C1305       C  0.83250195  0.90731897  0.98606219     0.37100
C1306       C  0.86786285  0.87877340  0.98510577    -0.24900
C1307       C  0.85290432  0.84355604  0.95674231    -0.14100
C1308       C  0.80181976  0.83947758  0.92439590     0.38200
N1309       N  0.78662062  0.80745649  0.88956221    -0.88300
H1310       H  0.72590524  0.86199886  0.90515538     0.19300
H1311       H  0.90738381  0.88321463  0.00874663     0.19300
N1312       N  0.85068641  0.94195432  0.01710334    -0.87400
H1313       H  0.75887966  0.79061957  0.89387223     0.36700
H1314       H  0.76981846  0.82090506  0.85529863     0.41800
H1315       H  0.82125449  0.95991398  0.01756793     0.41400
H1316       H  0.87031961  0.96002632  0.00304019     0.36300
C1317       C  0.67598227  0.84989070  0.00266724    -0.25400
C1318       C  0.72022224  0.87228192  0.01752722    -0.13500
C1319       C  0.76042634  0.86303144  0.06291385     0.37100
C1320       C  0.75587076  0.83107282  0.09104314    -0.24900
C1321       C  0.71019514  0.81038199  0.07741476    -0.14100
C1322       C  0.66970287  0.82084704  0.03294315     0.38200
N1323       N  0.62018731  0.80618237  0.02063272    -0.88300
H1324       H  0.64373248  0.85821861  0.96945882     0.19300
H1325       H  0.78691826  0.82476243  0.12584528     0.19300
N1326       N  0.80412075  0.88783589  0.08373631    -0.87400
H1327       H  0.59705850  0.83104075  0.01968432     0.36700
H1328       H  0.60675415  0.79479321  0.98555880     0.41800
H1329       H  0.79263400  0.91813626  0.08355403     0.41400
H1330       H  0.82415950  0.88509885  0.06286977     0.36300
C1331       C  0.63562307  0.69523136  0.98895937    -0.25400
C1332       C  0.68344180  0.68154887  0.99355216    -0.13500
C1333       C  0.72412871  0.68170506  0.04023526     0.37100
C1334       C  0.71870460  0.70340884  0.07716156    -0.24900
C1335       C  0.67246087  0.72168242  0.07038861    -0.14100
C1336       C  0.62938573  0.71407271  0.02718011     0.38200
N1337       N  0.57924056  0.72499561  0.02084292    -0.88300
H1338       H  0.60434922  0.69051669  0.45337744     0.19300
H1339       H  0.75118975  0.70671664  0.11153031     0.19300
N1340       N  0.77024618  0.65896865  0.05238111    -0.87400
H1341       H  0.55964821  0.73797052  0.48407150     0.36700
H1342       H  0.58068766  0.74429701  0.04840965     0.41800
H1343       H  0.76784810  0.63919803  0.02486152     0.41400
H1344       H  0.79934866  0.67947311  0.05895995     0.36300
C1345       C  0.81254248  0.76322623  0.98908978    -0.25400
C1346       C  0.86030553  0.75208158  0.49076759    -0.13500
C1347       C  0.86628439  0.71043306  0.48210321     0.37100
C1348       C  0.82606709  0.68370900  0.47178612    -0.24900
C1349       C  0.77757440  0.69753773  0.46409075    -0.14100
C1350       C  0.76999871  0.73827824  0.97222890     0.38200
N1351       N  0.72214893  0.75830637  0.95922058    -0.88300
H1352       H  0.80825766  0.79453584  0.99774927     0.19300
H1353       H  0.83258938  0.65209821  0.46732085     0.19300
N1354       N  0.91228494  0.69552723  0.48117928    -0.87400
H1355       H  0.70870308  0.75243040  0.98493262     0.36700
H1356       H  0.69659688  0.74902826  0.92494246     0.41800
H1357       H  0.91538295  0.70927187  0.45181877     0.41400
H1358       H  0.91090494  0.66418907  0.47499263     0.36300
N1359       N  0.73180165  0.66925493  0.94142827    -0.02600
C1360       C  0.68889328  0.66919256  0.94882953     0.00000
C1361       C  0.64955843  0.65319795  0.90893508    -0.22900
C1362       C  0.66888379  0.64150028  0.87732408    -0.23100
C1363       C  0.72006897  0.64895354  0.89901886    -0.00100
H1364       H  0.61162871  0.64724498  0.90452044     0.13700
H1365       H  0.64931572  0.62269872  0.84594595     0.13700
N1366       N  0.66907593  0.75251047  0.60097795    -0.02600
C1367       C  0.66489385  0.74598382  0.64311758     0.00000
C1368       C  0.68967234  0.77652173  0.67554649    -0.22900
C1369       C  0.70827768  0.80286902  0.65277503    -0.23100
C1370       C  0.69490661  0.78774732  0.60707591    -0.00100
H1371       H  0.68930069  0.78179617  0.71027600     0.13700
H1372       H  0.72678226  0.83133061  0.66700113     0.13700
N1373       N  0.73995337  0.92344877  0.46140220    -0.02600
C1374       C  0.72622585  0.96133778  0.95079645     0.00000
C1375       C  0.68841767  0.97328458  0.96394552    -0.22900
C1376       C  0.67596228  0.93904680  0.48078595    -0.23100
C1377       C  0.71151278  0.90978059  0.48345818    -0.00100
H1378       H  0.66803423  0.00210052  0.95599513     0.13700
H1379       H  0.64803706  0.93680147  0.49502327     0.13700
N1380       N  0.89895659  0.78127304  0.49540765    -0.02600
C1381       C  0.94942429  0.77391352  0.51831630     0.00000
C1382       C  0.97513272  0.79908221  0.50096394    -0.22900
C1383       C  0.93947738  0.82411123  0.46738252    -0.23100
C1384       C  0.89293552  0.81358137  0.46533631    -0.00100
H1385       H  0.01561557  0.80200622  0.51487216     0.13700
H1386       H  0.94741017  0.85082729  0.45130905     0.13700
N1387       N  0.63631812  0.97387516  0.74158787    -0.02600
C1388       C  0.68373252  0.98468718  0.74956243     0.00000
C1389       C  0.70344220  0.95784180  0.72721354    -0.22900
C1390       C  0.66746359  0.92882849  0.70597166    -0.23100
C1391       C  0.62702504  0.93833214  0.71666864    -0.00100
H1392       H  0.74195573  0.95640660  0.73115090     0.13700
H1393       H  0.67363951  0.90035329  0.69132878     0.13700
N1394       N  0.47073659  0.58228317  0.69244924    -0.02600
C1395       C  0.45321360  0.61287227  0.65908237     0.00000
C1396       C  0.90075283  0.62250415  0.64914430    -0.22900
C1397       C  0.88604590  0.59645440  0.67543376    -0.23100
C1398       C  0.92803508  0.57339510  0.70372203    -0.00100
H1399       H  0.87799106  0.64713991  0.62652308     0.17100
H1400       H  0.84990319  0.59699224  0.67718797     0.13700
N1401       N  0.93999680  0.99452164  0.87655612    -0.02600
C1402       C  0.92472308  0.00769519  0.91047499     0.00000
C1403       C  0.95004430  0.98561902  0.95273479    -0.22900
C1404       C  0.97963644  0.95696705  0.94385451    -0.23100
C1405       C  0.97228459  0.96256995  0.89669427    -0.00100
H1406       H  0.94255316  0.98632713  0.98438799     0.13700
H1407       H  0.99924165  0.93160844  0.96719357     0.13700
N1408       N  0.53065648  0.81128976  0.77273510    -0.02600
C1409       C  0.02569814  0.77244395  0.76522435     0.00000
C1410       C  0.01232546  0.75216376  0.79736939    -0.22900
C1411       C  0.00558489  0.78140122  0.82642580    -0.23100
C1412       C  0.01585275  0.81859895  0.81162509    -0.00100
H1413       H  0.00565045  0.71991732  0.79805099     0.13700
H1414       H  0.99277486  0.77625516  0.85424394     0.13700
In1415     In  0.77470850  0.54025307  0.87676899     1.36900
C1416       C  0.74595644  0.98846551  0.92486359     0.78500
O1417       O  0.84516452  0.04082350  0.85877718    -0.60000
O1418       O  0.85393456  0.52646782  0.92948491    -0.50900
C1419       C  0.71623753  0.50729636  0.79165364     0.71200
O1420       O  0.70014489  0.02603838  0.81893706    -0.45700
C1421       C  0.75179251  0.61644787  0.89173054     0.75900
O1422       O  0.73288979  0.02532632  0.91803978    -0.57600
O1423       O  0.74405877  0.60371000  0.85029246    -0.47700
O1424       O  0.77880965  0.47944655  0.91398946    -0.54000
C1425       C  0.87207111  0.52769626  0.89883955     0.86000
O1426       O  0.76330534  0.50997013  0.80669262    -0.55900
O1427       O  0.77881040  0.59285040  0.92546825    -0.59200
In1428     In  0.53125820  0.71253593  0.64580907     1.36900
C1429       C  0.02958406  0.75255042  0.72368269     0.78500
O1430       O  0.50770627  0.72325826  0.56709360    -0.60000
O1431       O  0.96634830  0.75566600  0.59967779    -0.50900
C1432       C  0.62208870  0.72567033  0.64763289     0.71200
O1433       O  0.60933939  0.73615513  0.68038868    -0.45700
C1434       C  0.48370023  0.64462997  0.64991950     0.75900
O1435       O  0.52278892  0.76924986  0.68353684    -0.57600
O1436       O  0.96175444  0.67507726  0.62408821    -0.47700
O1437       O  0.04024288  0.71519011  0.72407019    -0.54000
C1438       C  0.97495663  0.75010982  0.56308864     0.86000
O1439       O  0.59160318  0.70176246  0.61725749    -0.55900
O1440       O  0.53133919  0.64646877  0.67025634    -0.59200
C1441       C  0.02844517  0.92434741  0.86805299    -0.25400
C1442       C  0.98126489  0.92869219  0.86925901    -0.13500
C1443       C  0.94523205  0.89756912  0.84962363     0.37100
C1444       C  0.95742774  0.86321229  0.82955759    -0.24900
C1445       C  0.00485052  0.85824075  0.82907188    -0.14100
C1446       C  0.04069502  0.88927152  0.84845686     0.38200
N1447       N  0.59299189  0.88344985  0.85122123    -0.88300
H1448       H  0.05662642  0.94749498  0.88417927     0.19300
H1449       H  0.92959239  0.83958346  0.81489373     0.19300
N1450       N  0.89594625  0.89950918  0.84934421    -0.87400
H1451       H  0.61832611  0.88580934  0.88752004     0.36700
H1452       H  0.59921609  0.90791109  0.83276436     0.41800
H1453       H  0.88956257  0.92650467  0.86400197     0.41400
H1454       H  0.89375323  0.87582385  0.87096944     0.36300
C1455       C  0.94518421  0.57389061  0.79012721    -0.25400
C1456       C  0.93018612  0.55192801  0.74708301    -0.13500
C1457       C  0.91179882  0.51234038  0.74490983     0.37100
C1458       C  0.91134388  0.49453299  0.78652475    -0.24900
C1459       C  0.92874611  0.51583814  0.83039702    -0.14100
C1460       C  0.94517618  0.55608479  0.83170874     0.38200
N1461       N  0.96364594  0.57848783  0.87583839    -0.88300
H1462       H  0.95776250  0.60492710  0.79162046     0.19300
H1463       H  0.90994110  0.96129226  0.78771762     0.19300
N1464       N  0.89373409  0.49017392  0.70061990    -0.87400
H1465       H  0.94176145  0.60511424  0.86997861     0.36700
H1466       H  0.00077354  0.58680623  0.88428916     0.41800
H1467       H  0.43676068  0.45866702  0.71224583     0.41400
H1468       H  0.87272211  0.97613324  0.69447171     0.36300
C1469       C  0.57638868  0.52054688  0.68524080    -0.25400
C1470       C  0.59857364  0.50252444  0.73118469    -0.13500
C1471       C  0.58170575  0.51429658  0.76620996     0.37100
C1472       C  0.54299185  0.54386708  0.75422155    -0.24900
C1473       C  0.51789749  0.55965123  0.70700077    -0.14100
C1474       C  0.53540374  0.54775743  0.67237404     0.38200
N1475       N  0.50984570  0.56120065  0.62325728    -0.88300
H1476       H  0.58916716  0.51135320  0.65827246     0.19300
H1477       H  0.53127398  0.55324208  0.78171161     0.19300
N1478       N  0.60457303  0.00077901  0.81673250    -0.87400
H1479       H  0.49717438  0.53558729  0.60132512     0.36700
H1480       H  0.53597738  0.57586767  0.61405983     0.41800
H1481       H  0.63118056  0.97799862  0.82024664     0.41400
H1482       H  0.57601429  0.98665409  0.82271953     0.36300
C1483       C  0.62781956  0.87262397  0.75609543    -0.25400
C1484       C  0.59884133  0.90481228  0.72642117    -0.13500
C1485       C  0.54544289  0.90345231  0.70813478     0.37100
C1486       C  0.52305216  0.87178864  0.72249040    -0.24900
C1487       C  0.55273545  0.84088412  0.75350868    -0.14100
C1488       C  0.60520140  0.84063055  0.76903126     0.38200
N1489       N  0.63577600  0.80881770  0.80021346    -0.88300
H1490       H  0.66865279  0.87270395  0.77042862     0.19300
H1491       H  0.48243408  0.87150439  0.70999865     0.19300
N1492       N  0.51289394  0.93286286  0.67442985    -0.87400
H1493       H  0.65646104  0.79486336  0.78349871     0.36700
H1494       H  0.66129085  0.82198041  0.83220677     0.41800
H1495       H  0.52364929  0.93598888  0.64619259     0.41400
H1496       H  0.51644387  0.96054530  0.69200465     0.36300
C1497       C  0.76542386  0.86746539  0.42315023    -0.25400
C1498       C  0.77878560  0.90088893  0.45458065    -0.13500
C1499       C  0.83034651  0.90946551  0.48200314     0.37100
C1500       C  0.86677018  0.88131273  0.48247214    -0.24900
C1501       C  0.85321703  0.84547516  0.45510317    -0.14100
C1502       C  0.80257091  0.84029042  0.42218255     0.38200
N1503       N  0.78876282  0.80721532  0.38877116    -0.88300
H1504       H  0.72593452  0.86185688  0.40053419     0.19300
H1505       H  0.90592674  0.88633118  0.50688641     0.19300
N1506       N  0.84698260  0.94374156  0.51385428    -0.87400
H1507       H  0.76101892  0.79045488  0.39319204     0.36700
H1508       H  0.77234324  0.81960861  0.35394126     0.41800
H1509       H  0.81680826  0.96107994  0.51366630     0.41400
H1510       H  0.86708800  0.96255389  0.50108940     0.36300
C1511       C  0.67084940  0.84815930  0.49341563    -0.25400
C1512       C  0.71556436  0.86998707  0.50800674    -0.13500
C1513       C  0.75602198  0.85993957  0.55301703     0.37100
C1514       C  0.75003554  0.82965093  0.58224152    -0.24900
C1515       C  0.70365079  0.81037195  0.56923199    -0.14100
C1516       C  0.66380531  0.81999058  0.52411574     0.38200
N1517       N  0.61418943  0.80535401  0.51135487    -0.88300
H1518       H  0.63873461  0.85645794  0.46018412     0.19300
H1519       H  0.78080669  0.82338162  0.61723922     0.19300
N1520       N  0.80203948  0.88198306  0.57225441    -0.87400
H1521       H  0.59067451  0.83043938  0.50848542     0.36700
H1522       H  0.60176130  0.79267659  0.47695505     0.41800
H1523       H  0.79384998  0.91317818  0.57020058     0.41400
H1524       H  0.82180820  0.87484610  0.55194802     0.36300
C1525       C  0.63668386  0.69350467  0.48779231    -0.25400
C1526       C  0.68533975  0.68118042  0.49344427    -0.13500
C1527       C  0.72548487  0.68290256  0.54037118     0.37100
C1528       C  0.71829604  0.70471972  0.57634755    -0.24900
C1529       C  0.67096263  0.72155671  0.56837940    -0.14100
C1530       C  0.62884762  0.71271298  0.52493470     0.38200
N1531       N  0.57806747  0.72299323  0.51723044    -0.88300
H1532       H  0.60279704  0.69335110  0.95472816     0.19300
H1533       H  0.75026013  0.70947120  0.61075148     0.19300
N1534       N  0.77293170  0.66191523  0.55360155    -0.87400
H1535       H  0.56093774  0.74127403  0.98859853     0.36700
H1536       H  0.57834202  0.74345915  0.54334077     0.41800
H1537       H  0.77197122  0.64187368  0.52683083     0.41400
H1538       H  0.80078260  0.68353394  0.55967340     0.36300
C1539       C  0.81382861  0.76519018  0.48914534    -0.25400
C1540       C  0.85871596  0.74960245  0.99052359    -0.13500
C1541       C  0.86397218  0.70784096  0.98162265     0.37100
C1542       C  0.82315107  0.68160819  0.97088214    -0.24900
C1543       C  0.77497075  0.69613209  0.96328382    -0.14100
C1544       C  0.77181641  0.73959523  0.47285566     0.38200
N1545       N  0.72366574  0.75880898  0.46066733    -0.88300
H1546       H  0.80892532  0.79652252  0.49733663     0.19300
H1547       H  0.82875308  0.64987175  0.96580000     0.19300
N1548       N  0.90982657  0.69234539  0.98090128    -0.87400
H1549       H  0.71125773  0.75259640  0.48705643     0.36700
H1550       H  0.69772483  0.74910181  0.42677182     0.41800
H1551       H  0.91332529  0.70590841  0.95166239     0.41400
H1552       H  0.90789297  0.66099881  0.97462949     0.36300
loop_ 
_geom_bond_atom_site_label_1 
_geom_bond_atom_site_label_2 
_geom_bond_distance 
_geom_bond_site_symmetry_2 
_ccdc_geom_bond_type 
N1            C5   1.370       .  A
N1            C2   1.370       .  A
N1          C185   1.461       .  S
C2            C3   1.384       .  A
C2          C362   1.504       .  S
C3            C4   1.367       .  A
C3            H6   1.081       .  S
C4            C5   1.382       .  A
C4            H7   1.083       .  S
C5           C63   1.485       .  S
N8           C12   1.363       .  A
N8            C9   1.367       .  A
N8          C171   1.445       .  S
C9           C10   1.388       .  A
C9           C74   1.486       .  S
C10          C11   1.368       .  A
C10          H13   1.083       .  S
C11          C12   1.378       .  A
C11          H14   1.083       .  S
C12         C157   1.491       .  S
N15          C19   1.357       .  A
N15         C210   1.357       .  A
N15         C140   1.436       .  S
C16         N209   1.359       .  A
C16          C17   1.381       .  A
C16          C58   1.474       .  S
C17         C212   1.371       .  A
C17          H20   1.082       .  S
C18          C19   1.382       .  A
C18         C211   1.373       .  A
C18          H21   1.082   1_556  S
C19         C154   1.482   1_556  S
N22          C26   1.367       .  A
N22          C23   1.358   1_556  A
N22         C376   1.458       .  S
C23          C24   1.376   1_554  A
C23          C80   1.471       .  S
C24          C25   1.372       .  A
C24          H27   1.080   1_556  S
C25          C26   1.388       .  A
C25          H28   1.083       .  S
C26         C143   1.486       .  S
N29          C33   1.359       .  A
N29          C30   1.353       .  A
N29         C500   1.437       .  S
C30          C31   1.378       .  A
C30         C449   1.471       .  S
C31          C32   1.375       .  A
C31          H34   1.082       .  S
C32          C33   1.389       .  A
C32          H35   1.083       .  S
C33         C126   1.491       .  S
N36          C37   1.365       .  A
N36         C816   1.366       .  A
N36         C115   1.453   1_655  S
C37         C814   1.384       .  A
C37          C76   1.485       .  S
C38          C39   1.370       .  A
C38         C813   1.384       .  A
C38          H41   1.082       .  S
C39          C40   1.378       .  A
C39          H42   1.082       .  S
C40         N812   1.366       .  A
C40          C98   1.480       .  S
N43          C47   1.360       .  A
N43          C44   1.362       .  A
N43         C489   1.450       .  S
C44          C45   1.385       .  A
C44         C455   1.480       .  S
C45          C46   1.374       .  A
C45          H48   1.082       .  S
C46          C47   1.379       .  A
C46          H49   1.083       .  S
C47          C84   1.479       .  S
N50         C830   1.358       .  A
N50         C827   1.355       .  A
N50         C129   1.436       .  S
C51         N826   1.355       .  A
C51          C52   1.381       .  A
C51          C71   1.476       .  S
C52          C53   1.377       .  A
C52          H55   1.082       .  S
C53          C54   1.383       .  A
C53          H56   1.082       .  S
C54         N826   1.356       .  A
C54          C87   1.484       .  S
In57         O60   2.241       .  S
In57         O68   2.256       .  S
In57         O65   2.272       .  S
In57         O66   2.285   1_545  S
In57         O69   2.249       .  S
In57        O447   2.270       .  S
In57        O450   2.235       .  S
In57        O452   2.233       .  S
C58          O64   1.256       .  A
C58         O454   1.260       .  A
O59        In445   2.273       .  S
O59         C455   1.261       .  A
O60          C67   1.262       .  A
C61         C418   1.469   1_545  S
C61          O68   1.258       .  A
C61         O450   1.256       .  A
O62        In445   2.236       .  S
O62         C449   1.256       .  A
C63          O65   1.262       .  A
C63          O69   1.256       .  A
O64        In445   2.228       .  S
O66         C446   1.260       .  A
C67         C432   1.481       .  S
C67         O447   1.260       .  A
In70         O72   2.241       .  S
In70         O81   2.313       .  S
In70         O75   2.213       .  S
In70         O77   2.264       .  S
In70         O82   2.298       .  S
In70        O849   2.254   1_455  S
In70        O854   2.219   1_455  S
In70        O855   2.233       .  S
C71          O79   1.262       .  A
C71         O853   1.265       .  A
O72         C856   1.260   1_455  A
O73        In846   2.253       .  S
O73          C80   1.262       .  A
C74          O81   1.263       .  A
C74          O75   1.257       .  A
C76          O82   1.265   1_655  A
C76         O854   1.257       .  A
O77         C847   1.264       .  A
O78        In846   2.221       .  S
O78         C852   1.257       .  A
O79        In846   2.235       .  S
C80         O848   1.260       .  A
C83          C84   1.403       .  A
C83          C88   1.407       .  A
C83          H90   1.084       .  S
C84          C85   1.420       .  A
C85          C86   1.398       .  A
C85          N92   1.440       .  S
C86          C87   1.401       .  A
C86          H91   1.084       .  S
C87          C88   1.410       .  A
C88         N865   1.430       .  S
N89         C864   1.430       .  S
N89          H93   1.045       .  S
N89          H94   1.045       .  S
N92          H95   1.041       .  S
N92          H96   1.046       .  S
C97          C98   1.402       .  A
C97         C102   1.402       .  A
C97         H104   1.084       .  S
C98          C99   1.404       .  A
C99         C100   1.408   1_545  A
C99         N106   1.432   1_545  S
C100        C101   1.409   1_565  A
C100        H493   1.078       .  S
C101        N431   1.449   1_545  S
C101        C102   1.410       .  A
C102        N103   1.431       .  S
N103        H107   1.046       .  S
N103        H108   1.045       .  S
H105        C488   1.077       .  S
N106        H885   1.046       .  S
N106        H498   1.045       .  S
H109        N882   1.046       .  S
H110        N494   1.045       .  S
C111        C112   1.401       .  A
C111        C116   1.399       .  A
C111        H118   1.084       .  S
C112        N417   1.439   1_545  S
C112        C113   1.412       .  A
C113        C114   1.407       .  A
C113        N508   1.437   1_545  S
C114        C115   1.411       .  A
C114        H119   1.078       .  S
C115        C116   1.415       .  A
C116        N117   1.432       .  S
N117        H121   1.046   1_455  S
N117        H122   1.046       .  S
N120        C501   1.437       .  S
N120        H123   1.044       .  S
N120        H124   1.046       .  S
C125        C126   1.408       .  A
C125        C130   1.400       .  A
C125        H132   1.084       .  S
C126        C127   1.419       .  A
C127        C128   1.404       .  A
C127        N134   1.430       .  S
C128        C129   1.400       .  A
C128        H133   1.083   1_455  S
C129        C130   1.406       .  A
C130        N131   1.438       .  S
N131        H135   1.045       .  S
N131        H136   1.046       .  S
N134        H137   1.045       .  S
N134        H138   1.040       .  S
C139        C140   1.405       .  A
C139        C144   1.408       .  A
C139        H146   1.084       .  S
C140        C141   1.412       .  A
C141        C142   1.395       .  A
C141        N148   1.438   1_556  S
C142        C143   1.406       .  A
C142        H147   1.084   1_556  S
C143        C144   1.407       .  A
C144        N145   1.431       .  S
N145        H149   1.045       .  S
N145        H150   1.045       .  S
N148        H151   1.042       .  S
N148        H152   1.046       .  S
C153        C154   1.398       .  A
C153        C158   1.399       .  A
C153        H160   1.082   1_554  S
C154        C155   1.415       .  A
C155        C156   1.403       .  A
C155        N162   1.430       .  S
C156        C157   1.406       .  A
C156        H161   1.084       .  S
C157        C158   1.410       .  A
C158        N159   1.426       .  S
N159        H163   1.046       .  S
N159        H164   1.046   1_554  S
N162        H165   1.045       .  S
N162        H166   1.041       .  S
C167        C168   1.414       .  A
C167        C172   1.405   1_556  A
C167        H368   1.082       .  S
C168        C169   1.418   1_556  A
C168        C196   1.504       .  S
C169        C170   1.404       .  A
C169        N176   1.435       .  S
C170        C171   1.406       .  A
C170        H175   1.084       .  S
C171        C172   1.412       .  A
C172        N173   1.437       .  S
N173        H178   1.043       .  S
N173        H371   1.044   1_554  S
H174        C361   1.081       .  S
N176        H179   1.043       .  S
N176        H180   1.045       .  S
H177        N367   1.044       .  S
C181        C186   1.406       .  A
C181        C376   1.401       .  A
C181        H188   1.081       .  S
C182        N216   1.454       .  S
C182        C183   1.417       .  A
C182        C375   1.399       .  A
C183        C184   1.405       .  A
C183        N190   1.438       .  S
C184        C185   1.405       .  A
C184        H189   1.072       .  S
C185        C380   1.427       .  A
C186        C379   1.430       .  A
C186        N187   1.433       .  S
N187        H191   1.041       .  S
N187        H192   1.045       .  S
N190        H193   1.046       .  S
N190        H194   1.046       .  S
N195        C199   1.375       .  A
N195        C196   1.373       .  A
N195        C379   1.464       .  S
C196        C197   1.382       .  A
C197        C198   1.366       .  A
C197        H200   1.082       .  S
C198        C199   1.382       .  A
C198        H201   1.084       .  S
C199        C257   1.492       .  S
N202        C206   1.361       .  A
N202        C203   1.365       .  A
N202        C365   1.443       .  S
C203        C204   1.388       .  A
C203        C268   1.484       .  S
C204        C205   1.371       .  A
C204        H207   1.083       .  S
C205        C206   1.377       .  A
C205        H208   1.082       .  S
C206        C351   1.492       .  S
N209        C213   1.361       .  A
N209        C334   1.438       .  S
C210        C211   1.382       .  A
C210        C252   1.472       .  S
C211        H214   1.082       .  S
C212        C213   1.383       .  A
C212        H215   1.082       .  S
C213        C348   1.487       .  S
N216        C220   1.366       .  A
N216        C217   1.353       .  A
C217        C218   1.377       .  A
C217        C274   1.469       .  S
C218        C219   1.374       .  A
C218        H221   1.079       .  S
C219        C220   1.388       .  A
C219        H222   1.083       .  S
C220        C337   1.485       .  S
N223        C227   1.360       .  A
N223        C224   1.355       .  A
N223        C694   1.441       .  S
C224        C225   1.380       .  A
C224        C643   1.474       .  S
C225        C226   1.375       .  A
C225        H228   1.083       .  S
C226        C227   1.389       .  A
C226        H229   1.083       .  S
C227        C320   1.491       .  S
N230       C1010   1.364       .  A
N230        C231   1.362       .  A
N230        C309   1.449   1_655  S
C231       C1008   1.383       .  A
C231        C270   1.485       .  S
C232       C1007   1.384       .  A
C232        C233   1.372       .  A
C232        H235   1.082       .  S
C233        C234   1.379       .  A
C233        H236   1.082       .  S
C234       N1006   1.365       .  A
C234        C292   1.481       .  S
N237        C241   1.361       .  A
N237        C238   1.364       .  A
N237        C683   1.451       .  S
C238        C239   1.385       .  A
C238        C649   1.483       .  S
C239        C240   1.373       .  A
C239        H242   1.082       .  S
C240        C241   1.379       .  A
C240        H243   1.083       .  S
C241        C278   1.479       .  S
N244       C1024   1.356       .  A
N244       C1021   1.354       .  A
N244        C323   1.436       .  S
C245       N1020   1.356       .  A
C245        C246   1.381       .  A
C245        C265   1.475       .  S
C246        C247   1.377       .  A
C246        H249   1.082       .  S
C247        C248   1.384       .  A
C247        H250   1.082       .  S
C248       N1020   1.357       .  A
C248        C281   1.485       .  S
In251       O641   2.284       .  S
In251       O254   2.229       .  S
In251       O262   2.271       .  S
In251       O644   2.237       .  S
In251       O646   2.233       .  S
In251       O259   2.273       .  S
In251       O260   2.289   1_545  S
In251       O263   2.270       .  S
C252        O258   1.254       .  A
C252        O648   1.259       .  A
O253       In639   2.280       .  S
O253        C649   1.263       .  A
O254        C261   1.261       .  A
C255        C612   1.475   1_545  S
C255        O262   1.260       .  A
C255        O644   1.255       .  A
O256       In639   2.252       .  S
O256        C643   1.256       .  A
C257        O259   1.264       .  A
C257        O263   1.259       .  A
O258       In639   2.230       .  S
O260        C640   1.259       .  A
C261        C626   1.483       .  S
C261        O641   1.263       .  A
In264       O266   2.240       .  S
In264      O1043   2.245   1_455  S
In264       O275   2.313       .  S
In264       O269   2.211       .  S
In264       O271   2.251       .  S
In264      O1048   2.228   1_455  S
In264      O1049   2.244       .  S
In264       O276   2.293       .  S
C265       O1047   1.264       .  A
C265        O273   1.262       .  A
O266       C1050   1.261   1_455  A
O267      In1040   2.249       .  S
O267        C274   1.262       .  A
C268        O275   1.265       .  A
C268        O269   1.257       .  A
C270       O1048   1.258       .  A
C270        O276   1.265   1_655  A
O271       C1041   1.263       .  A
O272      In1040   2.226       .  S
O272       C1046   1.257       .  A
O273      In1040   2.241       .  S
C274       O1042   1.259       .  A
C277        C278   1.404       .  A
C277        C282   1.409       .  A
C277        H284   1.084       .  S
C278        C279   1.419       .  A
C279        C280   1.396       .  A
C279        N286   1.441       .  S
C280        C281   1.400       .  A
C280        H285   1.084       .  S
C281        C282   1.411       .  A
C282       N1059   1.430       .  S
N283       C1058   1.430       .  S
N283        H287   1.044       .  S
N283        H288   1.044       .  S
N286        H289   1.042       .  S
N286        H290   1.045       .  S
C291        C292   1.402       .  A
C291        C296   1.403       .  A
C291        H298   1.084       .  S
C292        C293   1.406       .  A
C293        C294   1.409   1_545  A
C293        N300   1.432   1_545  S
C294        C295   1.408   1_565  A
C294        H687   1.080       .  S
C295        N625   1.447   1_545  S
C295        C296   1.410       .  A
C296        N297   1.431       .  S
N297        H301   1.046       .  S
N297        H302   1.045       .  S
H299        C682   1.078       .  S
N300       H1079   1.046       .  S
N300        H692   1.046       .  S
H303       N1076   1.046       .  S
H304        N688   1.046       .  S
C305        C306   1.401       .  A
C305        C310   1.398       .  A
C305        H312   1.084       .  S
C306        N611   1.438   1_545  S
C306        C307   1.413       .  A
C307        C308   1.406       .  A
C307        N702   1.437       .  S
C308        C309   1.409       .  A
C308        H313   1.080       .  S
C309        C310   1.413       .  A
C310        N311   1.432       .  S
N311        H315   1.046   1_455  S
N311        H316   1.046       .  S
N314        C695   1.437       .  S
N314        H317   1.044       .  S
N314        H318   1.045       .  S
C319        C320   1.409       .  A
C319        C324   1.401       .  A
C319        H326   1.084       .  S
C320        C321   1.417       .  A
C321        C322   1.404       .  A
C321        N328   1.430       .  S
C322        C323   1.400       .  A
C322        H327   1.083   1_455  S
C323        C324   1.406       .  A
C324        N325   1.438       .  S
N325        H329   1.046       .  S
N325        H330   1.044       .  S
N328        H331   1.045       .  S
N328        H332   1.040       .  S
C333        C334   1.407       .  A
C333        C338   1.410       .  A
C333        H340   1.083       .  S
C334        C335   1.413       .  A
C335        C336   1.394       .  A
C335        N342   1.438       .  S
C336        C337   1.404       .  A
C336        H341   1.084       .  S
C337        C338   1.408       .  A
C338        N339   1.432       .  S
N339        H343   1.045       .  S
N339        H344   1.045       .  S
N342        H345   1.041       .  S
N342        H346   1.045       .  S
C347        C348   1.401       .  A
C347        C352   1.402       .  A
C347        H354   1.084       .  S
C348        C349   1.417       .  A
C349        C350   1.404       .  A
C349        N356   1.428       .  S
C350        C351   1.404       .  A
C350        H355   1.084       .  S
C351        C352   1.410       .  A
C352        N353   1.428       .  S
N353        H357   1.045       .  S
N353        H358   1.045       .  S
N356        H359   1.045       .  S
N356        H360   1.041       .  S
C361        C362   1.414       .  A
C361        C366   1.403       .  A
C362        C363   1.419       .  A
C363        C364   1.402       .  A
C363        N370   1.435       .  S
C364        C365   1.405       .  A
C364        H369   1.084       .  S
C365        C366   1.409       .  A
C366        N367   1.437       .  S
N367        H372   1.042       .  S
N370        H373   1.043       .  S
N370        H374   1.045       .  S
C375        C380   1.402       .  A
C375        H382   1.080       .  S
C376        C377   1.418       .  A
C377        C378   1.408       .  A
C377        N384   1.437       .  S
C378        C379   1.404       .  A
C378        H383   1.075       .  S
C380        N381   1.432       .  S
N381        H385   1.040       .  S
N381        H386   1.045       .  S
N384        H387   1.046       .  S
N384        H388   1.045       .  S
N389        C393   1.371       .  A
N389        C390   1.370       .  A
N389        C573   1.462       .  S
C390        C391   1.383       .  A
C390        C750   1.505       .  S
C391        C392   1.367       .  A
C391        H394   1.081       .  S
C392        C393   1.382       .  A
C392        H395   1.083       .  S
C393        C451   1.487       .  S
N396        C400   1.365       .  A
N396        C397   1.368       .  A
N396        C559   1.444       .  S
C397        C398   1.386       .  A
C397        C462   1.490       .  S
C398        C399   1.370       .  A
C398        H401   1.083       .  S
C399        C400   1.380       .  A
C399        H402   1.082       .  S
C400        C545   1.501       .  S
N403        C407   1.358       .  A
N403        C598   1.358       .  A
N403        C528   1.435       .  S
C404        N597   1.358       .  A
C404        C405   1.382       .  A
C404        C446   1.476       .  S
C405        C600   1.374       .  A
C405        H408   1.082   1_565  S
C406        C599   1.373       .  A
C406        C407   1.382       .  A
C406        H409   1.082   1_556  S
C407        C542   1.485   1_556  S
N410        C414   1.366       .  A
N410        C411   1.356   1_556  A
N410        C764   1.457       .  S
C411        C412   1.377   1_554  A
C411        C468   1.466       .  S
C412        C413   1.371       .  A
C412        H415   1.081   1_556  S
C413        C414   1.387       .  A
C413        H416   1.082       .  S
C414        C531   1.481       .  S
N417        C421   1.360       .  A
N417        C418   1.353       .  A
C418        C419   1.378       .  A
C419        C420   1.374       .  A
C419        H422   1.083       .  S
C420        C421   1.390       .  A
C420        H423   1.083       .  S
C421        C514   1.493       .  S
N424       C1204   1.367       .  A
N424        C425   1.366       .  A
N424        C503   1.454   1_655  S
C425       C1202   1.384       .  A
C425        C464   1.489       .  S
C426       C1201   1.384       .  A
C426        C427   1.368       .  A
C426        H429   1.082       .  S
C427        C428   1.377       .  A
C427        H430   1.082       .  S
C428       N1200   1.364       .  A
C428        C486   1.476       .  S
N431        C435   1.360       .  A
N431        C432   1.362   1_565  A
C432        C433   1.384   1_545  A
C433        C434   1.375       .  A
C433        H436   1.082       .  S
C434        C435   1.380       .  A
C434        H437   1.083       .  S
C435        C472   1.479       .  S
N438       C1218   1.358       .  A
N438       C1215   1.355       .  A
N438        C517   1.436       .  S
C439       N1214   1.357       .  A
C439        C440   1.380       .  A
C439        C459   1.472       .  S
C440        C441   1.373       .  A
C440        H443   1.083       .  S
C441        C442   1.385       .  A
C441        H444   1.083       .  S
C442       N1214   1.358       .  A
C442        C475   1.484       .  S
In445       O448   2.236       .  S
In445       O456   2.264       .  S
In445       O453   2.271       .  S
In445       O454   2.282       .  S
In445       O457   2.257       .  S
C446        O452   1.256   1_565  A
O448        C455   1.261       .  A
C449        O456   1.259       .  A
C451        O453   1.263       .  A
C451        O457   1.257       .  A
In458       O460   2.237       .  S
In458      O1237   2.260   1_455  S
In458       O469   2.313       .  S
In458       O463   2.221       .  S
In458       O465   2.265       .  S
In458      O1242   2.227   1_455  S
In458      O1243   2.240       .  S
In458       O470   2.299       .  S
C459       O1241   1.264       .  A
C459        O467   1.261       .  A
O460       C1244   1.258   1_455  A
O461      In1234   2.248       .  S
O461        C468   1.261       .  A
C462        O469   1.264       .  A
C462        O463   1.259       .  A
C464       O1242   1.258       .  A
C464        O470   1.265   1_655  A
O465       C1235   1.263       .  A
O466      In1234   2.215       .  S
O466       C1240   1.257       .  A
O467      In1234   2.232       .  S
C468       O1236   1.259       .  A
C471        C472   1.405       .  A
C471        C476   1.410       .  A
C471        H478   1.084       .  S
C472        C473   1.418       .  A
C473        C474   1.395       .  A
C473        N480   1.441       .  S
C474        C475   1.401       .  A
C474        H479   1.084       .  S
C475        C476   1.410       .  A
C476       N1253   1.431       .  S
N477       C1252   1.430       .  S
N477        H481   1.045       .  S
N477        H482   1.046       .  S
N480        H483   1.041       .  S
N480        H484   1.046       .  S
C485        C486   1.402       .  A
C485        C490   1.404       .  A
C485        H492   1.084       .  S
C486        C487   1.401       .  A
C487        C488   1.405       .  A
C487        N494   1.432       .  S
C488        C489   1.409       .  A
C489        C490   1.413       .  A
C490        N491   1.432       .  S
N491        H495   1.046       .  S
N491        H496   1.045       .  S
N494       H1273   1.046       .  S
H497       N1270   1.046       .  S
C499        C500   1.398       .  A
C499        C504   1.396       .  A
C499        H506   1.084       .  S
C500        C501   1.412       .  A
C501        C502   1.408       .  A
C502        C503   1.413       .  A
C502        H507   1.079       .  S
C503        C504   1.416       .  A
C504        N505   1.431       .  S
N505        H509   1.046       .  S
N505        H510   1.046       .  S
N508        H511   1.045       .  S
N508        H512   1.045       .  S
C513        C514   1.409       .  A
C513        C518   1.400       .  A
C513        H520   1.084       .  S
C514        C515   1.420       .  A
C515        C516   1.403       .  A
C515        N522   1.430       .  S
C516        C517   1.399       .  A
C516        H521   1.083   1_455  S
C517        C518   1.406       .  A
C518        N519   1.438       .  S
N519        H523   1.046       .  S
N519        H524   1.045       .  S
N522        H525   1.045       .  S
N522        H526   1.041       .  S
C527        C528   1.406       .  A
C527        C532   1.408       .  A
C527        H534   1.084       .  S
C528        C529   1.411       .  A
C529        C530   1.394       .  A
C529        N536   1.438   1_556  S
C530        C531   1.405       .  A
C530        H535   1.084   1_556  S
C531        C532   1.406       .  A
C532        N533   1.432       .  S
N533        H537   1.043       .  S
N533        H538   1.046       .  S
N536        H539   1.041       .  S
N536        H540   1.046   1_554  S
C541        C542   1.396       .  A
C541        C546   1.401       .  A
C541        H548   1.084   1_554  S
C542        C543   1.416       .  A
C543        C544   1.406       .  A
C543        N550   1.430       .  S
C544        C545   1.408       .  A
C544        H549   1.084       .  S
C545        C546   1.413       .  A
C546        N547   1.424       .  S
N547        H551   1.045       .  S
N547        H552   1.046   1_554  S
N550        H553   1.045       .  S
N550        H554   1.041       .  S
C555        C556   1.413       .  A
C555        C560   1.403   1_556  A
C555        H756   1.082       .  S
C556        C557   1.418   1_556  A
C556        C584   1.503       .  S
C557        C558   1.402       .  A
C557        N564   1.436       .  S
C558        C559   1.405       .  A
C558        H563   1.084       .  S
C559        C560   1.411       .  A
C560        N561   1.437       .  S
N561        H759   1.045   1_554  S
N561        H566   1.042       .  S
H562        C749   1.082       .  S
N564        H567   1.042       .  S
N564        H568   1.046       .  S
H565        N755   1.045       .  S
C569        C764   1.403       .  A
C569        C574   1.406       .  A
C569        H576   1.081       .  S
C570        N604   1.454       .  S
C570        C763   1.400       .  A
C570        C571   1.417       .  A
C571        C572   1.405       .  A
C571        N578   1.438       .  S
C572        C573   1.405       .  A
C572        H577   1.073       .  S
C573        C768   1.429       .  A
C574        C767   1.427       .  A
C574        N575   1.432       .  S
N575        H579   1.039       .  S
N575        H580   1.045       .  S
N578        H581   1.046       .  S
N578        H582   1.045       .  S
N583        C587   1.371       .  A
N583        C584   1.371       .  A
N583        C767   1.461       .  S
C584        C585   1.384       .  A
C585        C586   1.367       .  A
C585        H588   1.082       .  S
C586        C587   1.382       .  A
C586        H589   1.084       .  S
C587        C645   1.485       .  S
N590        C594   1.364       .  A
N590        C591   1.368       .  A
N590        C753   1.444       .  S
C591        C592   1.388       .  A
C591        C656   1.490       .  S
C592        C593   1.370       .  A
C592        H595   1.083       .  S
C593        C594   1.378       .  A
C593        H596   1.082       .  S
C594        C739   1.495       .  S
N597        C601   1.359       .  A
N597        C722   1.434       .  S
C598        C599   1.382       .  A
C598        C640   1.475       .  S
C599        H602   1.082   1_565  S
C600        C601   1.383       .  A
C600        H603   1.082       .  S
C601        C736   1.488       .  S
N604        C608   1.365       .  A
N604        C605   1.354       .  A
C605        C606   1.375       .  A
C605        C662   1.468       .  S
C606        C607   1.374       .  A
C606        H609   1.081       .  S
C607        C608   1.389       .  A
C607        H610   1.083       .  S
C608        C725   1.483       .  S
N611        C615   1.360       .  A
N611        C612   1.355       .  A
C612        C613   1.379       .  A
C613        C614   1.376       .  A
C613        H616   1.082       .  S
C614        C615   1.390       .  A
C614        H617   1.083       .  S
C615        C708   1.495       .  S
N618       C1398   1.368       .  A
N618        C619   1.365       .  A
N618        C697   1.455   1_655  S
C619       C1396   1.384       .  A
C619        C658   1.488       .  S
C620       C1395   1.383       .  A
C620        C621   1.372       .  A
C620        H623   1.082       .  S
C621        C622   1.379       .  A
C621        H624   1.082       .  S
C622       N1394   1.366       .  A
C622        C680   1.483       .  S
N625        C629   1.359       .  A
N625        C626   1.362   1_565  A
C626        C627   1.386   1_545  A
C627        C628   1.373       .  A
C627        H630   1.082       .  S
C628        C629   1.379       .  A
C628        H631   1.083       .  S
C629        C666   1.478       .  S
N632       C1412   1.358       .  A
N632       C1409   1.356       .  A
N632        C711   1.436       .  S
C633       N1408   1.355       .  A
C633        C634   1.381       .  A
C633        C653   1.473       .  S
C634        C635   1.377       .  A
C634        H637   1.082       .  S
C635        C636   1.385       .  A
C635        H638   1.082       .  S
C636       N1408   1.356       .  A
C636        C669   1.485       .  S
In639       O642   2.230       .  S
In639       O650   2.258       .  S
In639       O647   2.275       .  S
In639       O648   2.282       .  S
In639       O651   2.248       .  S
C640        O646   1.255   1_565  A
O642        C649   1.262       .  A
C643        O650   1.258       .  A
C645        O647   1.264       .  A
C645        O651   1.256       .  A
In652       O654   2.239       .  S
In652      O1431   2.258   1_455  S
In652       O663   2.316       .  S
In652       O657   2.223       .  S
In652       O659   2.266       .  S
In652      O1436   2.227   1_455  S
In652      O1437   2.245       .  S
In652       O664   2.304       .  S
C653       O1435   1.263       .  A
C653        O661   1.261       .  A
O654       C1438   1.259   1_455  A
O655      In1428   2.252       .  S
O655        C662   1.263       .  A
C656        O663   1.263       .  A
C656        O657   1.258       .  A
C658       O1436   1.257       .  A
C658        O664   1.265   1_655  A
O659       C1429   1.264       .  A
O660      In1428   2.226       .  S
O660       C1434   1.257       .  A
O661      In1428   2.240       .  S
C662       O1430   1.259       .  A
C665        C666   1.403       .  A
C665        C670   1.409       .  A
C665        H672   1.084       .  S
C666        C667   1.418       .  A
C667        C668   1.396       .  A
C667        N674   1.440       .  S
C668        C669   1.401       .  A
C668        H673   1.084       .  S
C669        C670   1.412       .  A
C670       N1447   1.430       .  S
N671       C1446   1.430       .  S
N671        H675   1.045       .  S
N671        H676   1.045       .  S
N674        H677   1.041       .  S
N674        H678   1.045       .  S
C679        C680   1.401       .  A
C679        C684   1.403       .  A
C679        H686   1.084       .  S
C680        C681   1.405       .  A
C681        C682   1.410       .  A
C681        N688   1.432       .  S
C682        C683   1.411       .  A
C683        C684   1.411       .  A
C684        N685   1.431       .  S
N685        H689   1.046       .  S
N685        H690   1.045       .  S
N688       H1467   1.046       .  S
H691       N1464   1.046       .  S
C693        C694   1.402       .  A
C693        C698   1.402       .  A
C693        H700   1.084       .  S
C694        C695   1.412       .  A
C695        C696   1.408       .  A
C696        C697   1.411       .  A
C696        H701   1.078       .  S
C697        C698   1.415       .  A
C698        N699   1.432       .  S
N699        H703   1.046   1_455  S
N699        H704   1.046       .  S
N702        H705   1.044   1_545  S
N702        H706   1.045   1_545  S
C707        C708   1.409       .  A
C707        C712   1.400       .  A
C707        H714   1.084       .  S
C708        C709   1.420       .  A
C709        C710   1.404       .  A
C709        N716   1.430       .  S
C710        C711   1.400       .  A
C710        H715   1.083   1_455  S
C711        C712   1.406       .  A
C712        N713   1.438       .  S
N713        H717   1.044       .  S
N713        H718   1.047       .  S
N716        H719   1.045       .  S
N716        H720   1.040       .  S
C721        C722   1.406       .  A
C721        C726   1.409       .  A
C721        H728   1.083       .  S
C722        C723   1.411       .  A
C723        C724   1.393       .  A
C723        N730   1.438       .  S
C724        C725   1.404       .  A
C724        H729   1.084       .  S
C725        C726   1.408       .  A
C726        N727   1.432       .  S
N727        H731   1.044       .  S
N727        H732   1.046       .  S
N730        H733   1.042       .  S
N730        H734   1.046       .  S
C735        C736   1.400       .  A
C735        C740   1.402       .  A
C735        H742   1.085       .  S
C736        C737   1.417       .  A
C737        C738   1.405       .  A
C737        N744   1.429       .  S
C738        C739   1.406       .  A
C738        H743   1.084       .  S
C739        C740   1.410       .  A
C740        N741   1.427       .  S
N741        H745   1.045       .  S
N741        H746   1.045       .  S
N744        H747   1.045       .  S
N744        H748   1.041       .  S
C749        C750   1.414       .  A
C749        C754   1.404       .  A
C750        C751   1.420       .  A
C751        C752   1.402       .  A
C751        N758   1.435       .  S
C752        C753   1.405       .  A
C752        H757   1.084       .  S
C753        C754   1.410       .  A
C754        N755   1.437       .  S
N755        H760   1.042       .  S
N758        H761   1.042       .  S
N758        H762   1.045       .  S
C763        C768   1.404       .  A
C763        H770   1.081       .  S
C764        C765   1.417       .  A
C765        C766   1.405       .  A
C765        N772   1.438       .  S
C766        C767   1.403       .  A
C766        H771   1.074       .  S
C768        N769   1.432       .  S
N769        H773   1.040       .  S
N769        H774   1.045       .  S
N772        H775   1.046       .  S
N772        H776   1.046       .  S
N777        C781   1.369       .  A
N777        C778   1.369       .  A
N777        C961   1.459       .  S
C778        C779   1.384       .  A
C778       C1138   1.499       .  S
C779        C780   1.366       .  A
C779        H782   1.082       .  S
C780        C781   1.381       .  A
C780        H783   1.083       .  S
C781        C839   1.481       .  S
N784        C788   1.359       .  A
N784        C785   1.364       .  A
N784        C947   1.442       .  S
C785        C786   1.389       .  A
C785        C850   1.486       .  S
C786        C787   1.371       .  A
C786        H789   1.083       .  S
C787        C788   1.376       .  A
C787        H790   1.082       .  S
C788        C933   1.486       .  S
N791        C795   1.361       .  A
N791        C986   1.358       .  A
N791        C916   1.436       .  S
C792        N985   1.357       .  A
C792        C793   1.382       .  A
C792        C834   1.475       .  S
C793        C988   1.373       .  A
C793        H796   1.082       .  S
C794        C987   1.372   1_554  A
C794        C795   1.385   1_554  A
C794        H797   1.083       .  S
C795        C930   1.493   1_556  S
N798        C802   1.368       .  A
N798        C799   1.357   1_556  A
N798       C1152   1.457       .  S
C799        C800   1.376   1_554  A
C799        C856   1.471       .  S
C800        C801   1.372       .  A
C800        H803   1.081   1_656  S
C801        C802   1.388       .  A
C801        H804   1.083       .  S
C802        C919   1.486       .  S
N805        C809   1.358       .  A
N805        C806   1.353       .  A
N805       C1276   1.440       .  S
C806        C807   1.379       .  A
C806       C1225   1.468       .  S
C807        C808   1.374       .  A
C807        H810   1.083       .  S
C808        C809   1.389       .  A
C808        H811   1.083       .  S
C809        C902   1.486       .  S
N812        C813   1.365       .  A
N812        C891   1.452       .  S
C813        C852   1.488       .  S
C814        C815   1.369       .  A
C814        H817   1.082       .  S
C815        C816   1.378       .  A
C815        H818   1.082       .  S
C816        C874   1.480       .  S
N819        C823   1.360       .  A
N819        C820   1.362       .  A
N819       C1265   1.451       .  S
C820        C821   1.385       .  A
C820       C1231   1.478       .  S
C821        C822   1.374       .  A
C821        H824   1.082       .  S
C822        C823   1.380       .  A
C822        H825   1.083       .  S
C823        C860   1.479       .  S
N826        C905   1.433       .  S
C827        C828   1.381       .  A
C827        C847   1.473       .  S
C828        C829   1.375       .  A
C828        H831   1.082       .  S
C829        C830   1.384       .  A
C829        H832   1.082   1_455  S
C830        C863   1.486       .  S
In833      O1223   2.271       .  S
In833       O836   2.231       .  S
In833       O844   2.266       .  S
In833      O1226   2.239       .  S
In833      O1228   2.223       .  S
In833       O841   2.268       .  S
In833       O842   2.286   1_545  S
In833       O845   2.252       .  S
C834        O840   1.255       .  A
C834       O1230   1.260       .  A
O835      In1221   2.263       .  S
O835       C1231   1.260       .  A
O836        C843   1.261       .  A
C837       C1194   1.474   1_545  S
C837        O844   1.261       .  A
C837       O1226   1.255       .  A
O838      In1221   2.228       .  S
O838       C1225   1.255       .  A
C839        O841   1.262       .  A
C839        O845   1.257       .  A
O840      In1221   2.230       .  S
O842       C1222   1.260       .  A
C843       C1208   1.478       .  S
C843       O1223   1.261       .  A
In846       O848   2.249       .  S
In846       O857   2.310       .  S
In846       O851   2.225       .  S
In846       O853   2.266       .  S
In846       O858   2.303       .  S
C847        O855   1.260       .  A
O849        C856   1.263       .  A
C850        O857   1.262       .  A
C850        O851   1.257       .  A
C852        O858   1.266       .  A
C859        C860   1.403   1_455  A
C859        C864   1.409       .  A
C859        H866   1.084       .  S
C860        C861   1.419       .  A
C861        C862   1.397       .  A
C861        N868   1.441       .  S
C862        C863   1.402   1_655  A
C862        H867   1.084       .  S
C863        C864   1.410       .  A
N865        H869   1.044       .  S
N865        H870   1.045       .  S
N868        H871   1.041       .  S
N868        H872   1.046       .  S
C873        C874   1.402       .  A
C873        C878   1.404       .  A
C873        H880   1.084       .  S
C874        C875   1.405       .  A
C875        C876   1.407   1_545  A
C875        N882   1.431   1_545  S
C876        C877   1.407   1_565  A
C876       H1269   1.080       .  S
C877       N1207   1.448   1_545  S
C877        C878   1.412       .  A
C878        N879   1.432       .  S
N879        H883   1.046       .  S
N879        H884   1.046       .  S
H881       C1264   1.078       .  S
N882       H1274   1.045       .  S
H886       N1270   1.046       .  S
C887        C888   1.401       .  A
C887        C892   1.398       .  A
C887        H894   1.084       .  S
C888       N1193   1.440   1_545  S
C888        C889   1.412       .  A
C889        C890   1.408       .  A
C889       N1284   1.437       .  S
C890        C891   1.411       .  A
C890        H895   1.079       .  S
C891        C892   1.413       .  A
C892        N893   1.432       .  S
N893        H897   1.046       .  S
N893        H898   1.046       .  S
N896       C1277   1.438       .  S
N896        H899   1.044       .  S
N896        H900   1.046       .  S
C901        C902   1.407       .  A
C901        C906   1.398       .  A
C901        H908   1.084       .  S
C902        C903   1.417       .  A
C903        C904   1.404       .  A
C903        N910   1.430       .  S
C904        C905   1.400       .  A
C904        H909   1.083       .  S
C905        C906   1.404       .  A
C906        N907   1.439       .  S
N907        H911   1.044       .  S
N907        H912   1.046       .  S
N910        H913   1.045       .  S
N910        H914   1.040       .  S
C915        C916   1.406       .  A
C915        C920   1.409       .  A
C915        H922   1.084       .  S
C916        C917   1.414       .  A
C917        C918   1.395       .  A
C917        N924   1.438   1_556  S
C918        C919   1.405       .  A
C918        H923   1.084   1_556  S
C919        C920   1.407       .  A
C920        N921   1.432       .  S
N921        H925   1.044       .  S
N921        H926   1.045       .  S
N924        H927   1.042       .  S
N924        H928   1.045       .  S
C929        C930   1.404       .  A
C929        C934   1.400       .  A
C929        H936   1.084   1_554  S
C930        C931   1.420       .  A
C931        C932   1.403       .  A
C931        N938   1.427       .  S
C932        C933   1.401       .  A
C932        H937   1.084       .  S
C933        C934   1.407       .  A
C934        N935   1.429       .  S
N935        H939   1.046       .  S
N935        H940   1.044   1_554  S
N938        H941   1.045       .  S
N938        H942   1.040       .  S
C943        C944   1.412       .  A
C943        C948   1.402   1_556  A
C943       H1144   1.082       .  S
C944        C945   1.418   1_556  A
C944        C972   1.499       .  S
C945        C946   1.402       .  A
C945        N952   1.436       .  S
C946        C947   1.406       .  A
C946        H951   1.084       .  S
C947        C948   1.409       .  A
C948        N949   1.436       .  S
N949       H1147   1.043   1_554  S
N949        H954   1.043       .  S
H950       C1137   1.082       .  S
N952        H955   1.043       .  S
N952        H956   1.045       .  S
H953       N1143   1.044       .  S
C957       C1152   1.401       .  A
C957        C962   1.405       .  A
C957        H964   1.080       .  S
C958        N992   1.460       .  S
C958       C1151   1.403       .  A
C958        C959   1.422       .  A
C959        C960   1.407       .  A
C959        N966   1.437       .  S
C960        C961   1.402       .  A
C960        H965   1.076       .  S
C961       C1156   1.425       .  A
C962       C1155   1.429       .  A
C962        N963   1.432       .  S
N963        H967   1.041       .  S
N963        H968   1.045       .  S
N966        H969   1.045       .  S
N966        H970   1.046       .  S
N971        C975   1.371       .  A
N971        C972   1.370       .  A
N971       C1155   1.463       .  S
C972        C973   1.382       .  A
C973        C974   1.366       .  A
C973        H976   1.082       .  S
C974        C975   1.382       .  A
C974        H977   1.084       .  S
C975       C1033   1.485       .  S
N978        C982   1.363       .  A
N978        C979   1.365       .  A
N978       C1141   1.443       .  S
C979        C980   1.387       .  A
C979       C1044   1.486       .  S
C980        C981   1.370       .  A
C980        H983   1.083       .  S
C981        C982   1.379       .  A
C981        H984   1.082       .  S
C982       C1127   1.497       .  S
N985        C989   1.360       .  A
N985       C1110   1.437       .  S
C986        C987   1.380       .  A
C986       C1028   1.475       .  S
C987        H990   1.082       .  S
C988        C989   1.382       .  A
C988        H991   1.082       .  S
C989       C1124   1.486       .  S
N992        C996   1.368       .  A
N992        C993   1.356       .  A
C993        C994   1.377       .  A
C993       C1050   1.468       .  S
C994        C995   1.372       .  A
C994        H997   1.081   1_655  S
C995        C996   1.388       .  A
C995        H998   1.083       .  S
C996       C1113   1.485       .  S
N999       C1003   1.358       .  A
N999       C1000   1.354       .  A
N999       C1470   1.438       .  S
C1000      C1001   1.379       .  A
C1000      C1419   1.475       .  S
C1001      C1002   1.376       .  A
C1001      H1004   1.082       .  S
C1002      C1003   1.389       .  A
C1002      H1005   1.083       .  S
C1003      C1096   1.490       .  S
N1006      C1007   1.363       .  A
N1006      C1085   1.450       .  S
C1007      C1046   1.486       .  S
C1008      C1009   1.372       .  A
C1008      H1011   1.081       .  S
C1009      C1010   1.379       .  A
C1009      H1012   1.082       .  S
C1010      C1068   1.482       .  S
N1013      C1017   1.358       .  A
N1013      C1014   1.361       .  A
N1013      C1459   1.447       .  S
C1014      C1015   1.385       .  A
C1014      C1425   1.480       .  S
C1015      C1016   1.374       .  A
C1015      H1018   1.082       .  S
C1016      C1017   1.380       .  A
C1016      H1019   1.083       .  S
C1017      C1054   1.478       .  S
N1020      C1099   1.434       .  S
C1021      C1022   1.380       .  A
C1021      C1041   1.471       .  S
C1022      C1023   1.377       .  A
C1022      H1025   1.082       .  S
C1023      C1024   1.385       .  A
C1023      H1026   1.082   1_455  S
C1024      C1057   1.485       .  S
In1027     O1417   2.281       .  S
In1027     O1030   2.234       .  S
In1027     O1038   2.263       .  S
In1027     O1420   2.245       .  S
In1027     O1422   2.230       .  S
In1027     O1035   2.267       .  S
In1027     O1036   2.283   1_545  S
In1027     O1039   2.256       .  S
C1028      O1034   1.255       .  A
C1028      O1424   1.259       .  A
O1029     In1415   2.273       .  S
O1029      C1425   1.262       .  A
O1030      C1037   1.262       .  A
C1031      C1388   1.475   1_545  S
C1031      O1038   1.260       .  A
C1031      O1420   1.255       .  A
O1032     In1415   2.250       .  S
O1032      C1419   1.256       .  A
C1033      O1035   1.263       .  A
C1033      O1039   1.258       .  A
O1034     In1415   2.235       .  S
O1036      C1416   1.259       .  A
C1037      C1402   1.484       .  S
C1037      O1417   1.263       .  A
In1040     O1042   2.239       .  S
In1040     O1051   2.312       .  S
In1040     O1045   2.217       .  S
In1040     O1047   2.264       .  S
In1040     O1052   2.298       .  S
C1041      O1049   1.262       .  A
O1043      C1050   1.261       .  A
C1044      O1051   1.264       .  A
C1044      O1045   1.257       .  A
C1046      O1052   1.265       .  A
C1053      C1054   1.404   1_455  A
C1053      C1058   1.409       .  A
C1053      H1060   1.084       .  S
C1054      C1055   1.418       .  A
C1055      C1056   1.397       .  A
C1055      N1062   1.441       .  S
C1056      C1057   1.401   1_655  A
C1056      H1061   1.084       .  S
C1057      C1058   1.410       .  A
N1059      H1063   1.045       .  S
N1059      H1064   1.045       .  S
N1062      H1065   1.041       .  S
N1062      H1066   1.046       .  S
C1067      C1068   1.402       .  A
C1067      C1072   1.404       .  A
C1067      H1074   1.084       .  S
C1068      C1069   1.405       .  A
C1069      C1070   1.408   1_545  A
C1069      N1076   1.431   1_545  S
C1070      C1071   1.408   1_565  A
C1070      H1463   1.079       .  S
C1071      N1401   1.449   1_545  S
C1071      C1072   1.412       .  A
C1072      N1073   1.432       .  S
N1073      H1077   1.046       .  S
N1073      H1078   1.046       .  S
H1075      C1458   1.080       .  S
N1076      H1468   1.045       .  S
H1080      N1464   1.046       .  S
C1081      C1082   1.402       .  A
C1081      C1086   1.399       .  A
C1081      H1088   1.084       .  S
C1082      N1387   1.440   1_545  S
C1082      C1083   1.413       .  A
C1083      C1084   1.408       .  A
C1083      N1478   1.437       .  S
C1084      C1085   1.409       .  A
C1084      H1089   1.079       .  S
C1085      C1086   1.412       .  A
C1086      N1087   1.432       .  S
N1087      H1091   1.046       .  S
N1087      H1092   1.046       .  S
N1090      C1471   1.437       .  S
N1090      H1093   1.044       .  S
N1090      H1094   1.045       .  S
C1095      C1096   1.408       .  A
C1095      C1100   1.399       .  A
C1095      H1102   1.084       .  S
C1096      C1097   1.419       .  A
C1097      C1098   1.405       .  A
C1097      N1104   1.430       .  S
C1098      C1099   1.401       .  A
C1098      H1103   1.083       .  S
C1099      C1100   1.404       .  A
C1100      N1101   1.439       .  S
N1101      H1105   1.045       .  S
N1101      H1106   1.045       .  S
N1104      H1107   1.046       .  S
N1104      H1108   1.040       .  S
C1109      C1110   1.406       .  A
C1109      C1114   1.409       .  A
C1109      H1116   1.084       .  S
C1110      C1111   1.412       .  A
C1111      C1112   1.396       .  A
C1111      N1118   1.438       .  S
C1112      C1113   1.405       .  A
C1112      H1117   1.084       .  S
C1113      C1114   1.407       .  A
C1114      N1115   1.431       .  S
N1115      H1119   1.045       .  S
N1115      H1120   1.045       .  S
N1118      H1121   1.042       .  S
N1118      H1122   1.046       .  S
C1123      C1124   1.399       .  A
C1123      C1128   1.402       .  A
C1123      H1130   1.082       .  S
C1124      C1125   1.415       .  A
C1125      C1126   1.404       .  A
C1125      N1132   1.429       .  S
C1126      C1127   1.406       .  A
C1126      H1131   1.084       .  S
C1127      C1128   1.412       .  A
C1128      N1129   1.425       .  S
N1129      H1133   1.046       .  S
N1129      H1134   1.046       .  S
N1132      H1135   1.046       .  S
N1132      H1136   1.040       .  S
C1137      C1138   1.411       .  A
C1137      C1142   1.400       .  A
C1138      C1139   1.418       .  A
C1139      C1140   1.403       .  A
C1139      N1146   1.435       .  S
C1140      C1141   1.405       .  A
C1140      H1145   1.084       .  S
C1141      C1142   1.410       .  A
C1142      N1143   1.435       .  S
N1143      H1148   1.042       .  S
N1146      H1149   1.043       .  S
N1146      H1150   1.045       .  S
C1151      C1156   1.404       .  A
C1151      H1158   1.079       .  S
C1152      C1153   1.418       .  A
C1153      C1154   1.407       .  A
C1153      N1160   1.438       .  S
C1154      C1155   1.404       .  A
C1154      H1159   1.075       .  S
C1156      N1157   1.432       .  S
N1157      H1161   1.040       .  S
N1157      H1162   1.045       .  S
N1160      H1163   1.045       .  S
N1160      H1164   1.046       .  S
N1165      C1169   1.370       .  A
N1165      C1166   1.370       .  A
N1165      C1349   1.463       .  S
C1166      C1167   1.384       .  A
C1166      C1526   1.501       .  S
C1167      C1168   1.365       .  A
C1167      H1170   1.081       .  S
C1168      C1169   1.382       .  A
C1168      H1171   1.084       .  S
C1169      C1227   1.481       .  S
N1172      C1176   1.363       .  A
N1172      C1173   1.365       .  A
N1172      C1335   1.444       .  S
C1173      C1174   1.387       .  A
C1173      C1238   1.483       .  S
C1174      C1175   1.369       .  A
C1174      H1177   1.083       .  S
C1175      C1176   1.379       .  A
C1175      H1178   1.082       .  S
C1176      C1321   1.495       .  S
N1179      C1183   1.358       .  A
N1179      C1374   1.357       .  A
N1179      C1304   1.437       .  S
C1180      N1373   1.359       .  A
C1180      C1181   1.381       .  A
C1180      C1222   1.474       .  S
C1181      C1376   1.371       .  A
C1181      H1184   1.082   1_565  S
C1182      C1375   1.372       .  A
C1182      C1183   1.382       .  A
C1182      H1185   1.082   1_556  S
C1183      C1318   1.484   1_556  S
N1186      C1190   1.366       .  A
N1186      C1187   1.355   1_556  A
N1186      C1540   1.455       .  S
C1187      C1188   1.377   1_554  A
C1187      C1244   1.470       .  S
C1188      C1189   1.372       .  A
C1188      H1191   1.081   1_656  S
C1189      C1190   1.388       .  A
C1189      H1192   1.082       .  S
C1190      C1307   1.485       .  S
N1193      C1197   1.361       .  A
N1193      C1194   1.356       .  A
C1194      C1195   1.379       .  A
C1195      C1196   1.375       .  A
C1195      H1198   1.082       .  S
C1196      C1197   1.388       .  A
C1196      H1199   1.083       .  S
C1197      C1290   1.494       .  S
N1200      C1201   1.365       .  A
N1200      C1279   1.454       .  S
C1201      C1240   1.482       .  S
C1202      C1203   1.370       .  A
C1202      H1205   1.082       .  S
C1203      C1204   1.377       .  A
C1203      H1206   1.082       .  S
C1204      C1262   1.483       .  S
N1207      C1211   1.358       .  A
N1207      C1208   1.361   1_565  A
C1208      C1209   1.386   1_545  A
C1209      C1210   1.373       .  A
C1209      H1212   1.082       .  S
C1210      C1211   1.379       .  A
C1210      H1213   1.082       .  S
C1211      C1248   1.477       .  S
N1214      C1293   1.439       .  S
C1215      C1216   1.381       .  A
C1215      C1235   1.473       .  S
C1216      C1217   1.376   1_455  A
C1216      H1219   1.082   1_455  S
C1217      C1218   1.385   1_655  A
C1217      H1220   1.082       .  S
C1218      C1251   1.487   1_455  S
In1221     O1224   2.235       .  S
In1221     O1232   2.255       .  S
In1221     O1229   2.263       .  S
In1221     O1230   2.287       .  S
In1221     O1233   2.242       .  S
C1222      O1228   1.257   1_565  A
O1224      C1231   1.262       .  A
C1225      O1232   1.259       .  A
C1227      O1229   1.262       .  A
C1227      O1233   1.257       .  A
In1234     O1236   2.239       .  S
In1234     O1245   2.304       .  S
In1234     O1239   2.213       .  S
In1234     O1241   2.264       .  S
In1234     O1246   2.293       .  S
C1235      O1243   1.260       .  A
O1237      C1244   1.262       .  A
C1238      O1245   1.263       .  A
C1238      O1239   1.257       .  A
C1240      O1246   1.265       .  A
C1247      C1248   1.401   1_455  A
C1247      C1252   1.407       .  A
C1247      H1254   1.084       .  S
C1248      C1249   1.418       .  A
C1249      C1250   1.398       .  A
C1249      N1256   1.440       .  S
C1250      C1251   1.403       .  A
C1250      H1255   1.084       .  S
C1251      C1252   1.411   1_655  A
N1253      H1257   1.044       .  S
N1253      H1258   1.045       .  S
N1256      H1259   1.043       .  S
N1256      H1260   1.045       .  S
C1261      C1262   1.403       .  A
C1261      C1266   1.406       .  A
C1261      H1268   1.084       .  S
C1262      C1263   1.404       .  A
C1263      C1264   1.407       .  A
C1263      N1270   1.431       .  S
C1264      C1265   1.408       .  A
C1265      C1266   1.412       .  A
C1266      N1267   1.432       .  S
N1267      H1271   1.046       .  S
N1267      H1272   1.045       .  S
C1275      C1276   1.400       .  A
C1275      C1280   1.398       .  A
C1275      H1282   1.084       .  S
C1276      C1277   1.414       .  A
C1277      C1278   1.409       .  A
C1278      C1279   1.412       .  A
C1278      H1283   1.080       .  S
C1279      C1280   1.414       .  A
C1280      N1281   1.431       .  S
N1281      H1285   1.046       .  S
N1281      H1286   1.046       .  S
N1284      H1287   1.044   1_545  S
N1284      H1288   1.045   1_545  S
C1289      C1290   1.408       .  A
C1289      C1294   1.401       .  A
C1289      H1296   1.084       .  S
C1290      C1291   1.419       .  A
C1291      C1292   1.406       .  A
C1291      N1298   1.433       .  S
C1292      C1293   1.402       .  A
C1292      H1297   1.083       .  S
C1293      C1294   1.406       .  A
C1294      N1295   1.438       .  S
N1295      H1299   1.045       .  S
N1295      H1300   1.046       .  S
N1298      H1301   1.043       .  S
N1298      H1302   1.045       .  S
C1303      C1304   1.406       .  A
C1303      C1308   1.408       .  A
C1303      H1310   1.083       .  S
C1304      C1305   1.412       .  A
C1305      C1306   1.396       .  A
C1305      N1312   1.438   1_556  S
C1306      C1307   1.405       .  A
C1306      H1311   1.084   1_556  S
C1307      C1308   1.407       .  A
C1308      N1309   1.432       .  S
N1309      H1313   1.044       .  S
N1309      H1314   1.046       .  S
N1312      H1315   1.042       .  S
N1312      H1316   1.045       .  S
C1317      C1318   1.397       .  A
C1317      C1322   1.400       .  A
C1317      H1324   1.084   1_554  S
C1318      C1319   1.416       .  A
C1319      C1320   1.403       .  A
C1319      N1326   1.430       .  S
C1320      C1321   1.406       .  A
C1320      H1325   1.084       .  S
C1321      C1322   1.411       .  A
C1322      N1323   1.426       .  S
N1323      H1327   1.046       .  S
N1323      H1328   1.045   1_554  S
N1326      H1329   1.045       .  S
N1326      H1330   1.039       .  S
C1331      C1332   1.413       .  A
C1331      C1336   1.402   1_556  A
C1331      H1532   1.081       .  S
C1332      C1333   1.418   1_556  A
C1332      C1360   1.501       .  S
C1333      C1334   1.401       .  A
C1333      N1340   1.436       .  S
C1334      C1335   1.405       .  A
C1334      H1339   1.084       .  S
C1335      C1336   1.411       .  A
C1336      N1337   1.437       .  S
N1337      H1535   1.044   1_554  S
N1337      H1342   1.042       .  S
H1338      C1525   1.081       .  S
N1340      H1343   1.043       .  S
N1340      H1344   1.045       .  S
H1341      N1531   1.045       .  S
C1345      C1540   1.401       .  A
C1345      C1350   1.405       .  A
C1345      H1352   1.081       .  S
C1346      N1380   1.455       .  S
C1346      C1539   1.402       .  A
C1346      C1347   1.416       .  A
C1347      C1348   1.404       .  A
C1347      N1354   1.438       .  S
C1348      C1349   1.405       .  A
C1348      H1353   1.072       .  S
C1349      C1544   1.429       .  A
C1350      C1543   1.429       .  A
C1350      N1351   1.432       .  S
N1351      H1355   1.040       .  S
N1351      H1356   1.045       .  S
N1354      H1357   1.046       .  S
N1354      H1358   1.045       .  S
N1359      C1363   1.370       .  A
N1359      C1360   1.369       .  A
N1359      C1543   1.462       .  S
C1360      C1361   1.383       .  A
C1361      C1362   1.367       .  A
C1361      H1364   1.081       .  S
C1362      C1363   1.382       .  A
C1362      H1365   1.084       .  S
C1363      C1421   1.483       .  S
N1366      C1370   1.362       .  A
N1366      C1367   1.366       .  A
N1366      C1529   1.442       .  S
C1367      C1368   1.388       .  A
C1367      C1432   1.487       .  S
C1368      C1369   1.369       .  A
C1368      H1371   1.083       .  S
C1369      C1370   1.378       .  A
C1369      H1372   1.082       .  S
C1370      C1515   1.492       .  S
N1373      C1377   1.359       .  A
N1373      C1498   1.436       .  S
C1374      C1375   1.382       .  A
C1374      C1416   1.473       .  S
C1375      H1378   1.082   1_565  S
C1376      C1377   1.383       .  A
C1376      H1379   1.082       .  S
C1377      C1512   1.487       .  S
N1380      C1384   1.366       .  A
N1380      C1381   1.356       .  A
C1381      C1382   1.377       .  A
C1381      C1438   1.471       .  S
C1382      C1383   1.373       .  A
C1382      H1385   1.081   1_655  S
C1383      C1384   1.387       .  A
C1383      H1386   1.083       .  S
C1384      C1501   1.484       .  S
N1387      C1391   1.361       .  A
N1387      C1388   1.357       .  A
C1388      C1389   1.379       .  A
C1389      C1390   1.374       .  A
C1389      H1392   1.082       .  S
C1390      C1391   1.388       .  A
C1390      H1393   1.083       .  S
C1391      C1484   1.491       .  S
N1394      C1395   1.363       .  A
N1394      C1473   1.450       .  S
C1395      C1434   1.486       .  S
C1396      C1397   1.370       .  A
C1396      H1399   1.082       .  S
C1397      C1398   1.379       .  A
C1397      H1400   1.083       .  S
C1398      C1456   1.483       .  S
N1401      C1405   1.360       .  A
N1401      C1402   1.363   1_565  A
C1402      C1403   1.386   1_545  A
C1403      C1404   1.374       .  A
C1403      H1406   1.082       .  S
C1404      C1405   1.380       .  A
C1404      H1407   1.083       .  S
C1405      C1442   1.481       .  S
N1408      C1487   1.435       .  S
C1409      C1410   1.381       .  A
C1409      C1429   1.477       .  S
C1410      C1411   1.377       .  A
C1410      H1413   1.082       .  S
C1411      C1412   1.386       .  A
C1411      H1414   1.083   1_455  S
C1412      C1445   1.490       .  S
In1415     O1418   2.229       .  S
In1415     O1426   2.260       .  S
In1415     O1423   2.267       .  S
In1415     O1424   2.278       .  S
In1415     O1427   2.253       .  S
C1416      O1422   1.255   1_565  A
O1418      C1425   1.262       .  A
C1419      O1426   1.258       .  A
C1421      O1423   1.263       .  A
C1421      O1427   1.258       .  A
In1428     O1430   2.235       .  S
In1428     O1439   2.306       .  S
In1428     O1433   2.223       .  S
In1428     O1435   2.258       .  S
In1428     O1440   2.297       .  S
C1429      O1437   1.261       .  A
O1431      C1438   1.263       .  A
C1432      O1439   1.262       .  A
C1432      O1433   1.257       .  A
C1434      O1440   1.265       .  A
C1441      C1442   1.403   1_455  A
C1441      C1446   1.410       .  A
C1441      H1448   1.084       .  S
C1442      C1443   1.418       .  A
C1443      C1444   1.398       .  A
C1443      N1450   1.440       .  S
C1444      C1445   1.403   1_655  A
C1444      H1449   1.084       .  S
C1445      C1446   1.412       .  A
N1447      H1451   1.045       .  S
N1447      H1452   1.046       .  S
N1450      H1453   1.044       .  S
N1450      H1454   1.043       .  S
C1455      C1456   1.402       .  A
C1455      C1460   1.403       .  A
C1455      H1462   1.084       .  S
C1456      C1457   1.406       .  A
C1457      C1458   1.409       .  A
C1457      N1464   1.432       .  S
C1458      C1459   1.408       .  A
C1459      C1460   1.409       .  A
C1460      N1461   1.431       .  S
N1461      H1465   1.046       .  S
N1461      H1466   1.046   1_655  S
C1469      C1470   1.402       .  A
C1469      C1474   1.400       .  A
C1469      H1476   1.084       .  S
C1470      C1471   1.411       .  A
C1471      C1472   1.406       .  A
C1472      C1473   1.409       .  A
C1472      H1477   1.080       .  S
C1473      C1474   1.414       .  A
C1474      N1475   1.432       .  S
N1475      H1479   1.046       .  S
N1475      H1480   1.046       .  S
N1478      H1481   1.044   1_545  S
N1478      H1482   1.045   1_545  S
C1483      C1484   1.408       .  A
C1483      C1488   1.396       .  A
C1483      H1490   1.084       .  S
C1484      C1485   1.420       .  A
C1485      C1486   1.406       .  A
C1485      N1492   1.430       .  S
C1486      C1487   1.400       .  A
C1486      H1491   1.083       .  S
C1487      C1488   1.401       .  A
C1488      N1489   1.432       .  S
N1489      H1493   1.047       .  S
N1489      H1494   1.044       .  S
N1492      H1495   1.045       .  S
N1492      H1496   1.040       .  S
C1497      C1498   1.406       .  A
C1497      C1502   1.407       .  A
C1497      H1504   1.084       .  S
C1498      C1499   1.413       .  A
C1499      C1500   1.397       .  A
C1499      N1506   1.438       .  S
C1500      C1501   1.406       .  A
C1500      H1505   1.084       .  S
C1501      C1502   1.406       .  A
C1502      N1503   1.432       .  S
N1503      H1507   1.044       .  S
N1503      H1508   1.046       .  S
N1506      H1509   1.042       .  S
N1506      H1510   1.044       .  S
C1511      C1512   1.399       .  A
C1511      C1516   1.400       .  A
C1511      H1518   1.082       .  S
C1512      C1513   1.418       .  A
C1513      C1514   1.402       .  A
C1513      N1520   1.428       .  S
C1514      C1515   1.404       .  A
C1514      H1519   1.084       .  S
C1515      C1516   1.409       .  A
C1516      N1517   1.426       .  S
N1517      H1521   1.045       .  S
N1517      H1522   1.046       .  S
N1520      H1523   1.045       .  S
N1520      H1524   1.040       .  S
C1525      C1526   1.413       .  A
C1525      C1530   1.401       .  A
C1526      C1527   1.419       .  A
C1527      C1528   1.402       .  A
C1527      N1534   1.436       .  S
C1528      C1529   1.406       .  A
C1528      H1533   1.084       .  S
C1529      C1530   1.410       .  A
C1530      N1531   1.438       .  S
N1531      H1536   1.042       .  S
N1534      H1537   1.043       .  S
N1534      H1538   1.045       .  S
C1539      C1544   1.406       .  A
C1539      H1546   1.081       .  S
C1540      C1541   1.418       .  A
C1541      C1542   1.406       .  A
C1541      N1548   1.438       .  S
C1542      C1543   1.404       .  A
C1542      H1547   1.075       .  S
C1544      N1545   1.432       .  S
N1545      H1549   1.040       .  S
N1545      H1550   1.045       .  S
N1548      H1551   1.046       .  S
N1548      H1552   1.046       .  S
