geometry optimzed in LAMMPS
_audit_creation_date              2020-11-30 
_audit_creation_method            'lammps2cif' 
_symmetry_space_group_name_H-M    'P1' 
_symmetry_Int_Tables_number       1 
_symmetry_cell_setting            triclinic 
loop_ 
_symmetry_equiv_pos_as_xyz 
  x,y,z 
_cell_length_a                    32.54118617904412 
_cell_length_b                    24.444911637526374 
_cell_length_c                    25.155081870860542 
_cell_angle_alpha                 90.14200909714363 
_cell_angle_beta                  90.67282706536272 
_cell_angle_gamma                 89.91233950448616 
loop_ 
_atom_site_label 
_atom_site_type_symbol 
_atom_site_fract_x 
_atom_site_fract_y 
_atom_site_fract_z 
_atom_site_charge 
O1          O  0.43332700  0.38554598  0.39787251    -0.73680
O2          O  0.38551526  0.43457762  0.44381791    -0.52590
C3          C  0.39610446  0.39827518  0.40952246     0.80050
O4          O  0.07760780  0.39691072  0.10883079    -0.58280
O5          O  0.12385829  0.43881642  0.05479037    -0.51310
C6          C  0.11439347  0.40754424  0.09373955     0.72070
O7          O  0.43992762  0.38859443  0.10909802    -0.72840
O8          O  0.38957942  0.43371120  0.06353677    -0.53400
C9          C  0.40199710  0.39974978  0.09936857     0.78070
O10         O  0.07088715  0.38722740  0.39609667    -0.57980
O11         O  0.12057345  0.43698402  0.43822583    -0.51100
C12         C  0.10866697  0.39943150  0.40547682     0.74660
Zr13       Zr  0.00263312  0.41533275  0.42207809     2.54710
O14         O  0.00339823  0.31576748  0.42156993    -0.78550
O15         O  0.00167125  0.42036455  0.32534015    -0.91960
Zr16       Zr  0.00736354  0.41568829  0.07911409     2.64680
O17         O  0.51007789  0.31628503  0.07290760    -0.96920
O18         O  0.00874876  0.41319153  0.17590162    -0.78980
O19         O  0.46468790  0.41285899  0.00188493    -0.82340
O20         O  0.04503535  0.41474442  0.49930177    -2.17050
O21         O  0.06893564  0.10786848  0.39674088    -0.65730
O22         O  0.11991696  0.06232256  0.44104521    -0.50290
C23         C  0.10702110  0.09801154  0.40705399     0.73040
O24         O  0.43408942  0.10647657  0.10371121    -0.58630
O25         O  0.38600426  0.05403498  0.06044601    -0.50610
C26         C  0.39665188  0.09218489  0.09296158     0.74850
O27         O  0.07507199  0.09974883  0.10896821    -0.70030
O28         O  0.12216577  0.05456072  0.05799072    -0.48710
C29         C  0.11212649  0.08771930  0.09523895     0.76230
O30         O  0.43165045  0.09865296  0.39750227    -0.65360
O31         O  0.38342121  0.05028063  0.44171307    -0.52560
C32         C  0.39425936  0.08497922  0.40609390     0.74610
Zr33       Zr  0.50139659  0.07756141  0.42402978     2.77540
O34         O  0.49699289  0.17692540  0.42883081    -0.96110
O35         O  0.50052506  0.07931032  0.32725693    -0.76930
Zr36       Zr  0.50440263  0.07737887  0.08088407     2.70070
O37         O  0.00737401  0.17687433  0.08084094    -0.78180
O38         O  0.50213724  0.07244892  0.17750605    -0.97260
Zr39       Zr  0.42447880  0.49444617  0.00256259     2.21500
Zr40       Zr  0.08330869  0.99783865  0.49762418     2.11130
O41         O  0.04305213  0.07951409  0.50142547    -2.45950
O42         O  0.46250114  0.07789662  0.00300111    -0.77970
O43         O  0.04197694  0.99713624  0.41908676    -0.70170
O44         O  0.46579748  0.49546121  0.08177967    -2.31120
O45         O  0.46247935  0.49575396  0.42228189    -2.27330
O46         O  0.04593381  0.99751372  0.07876938    -0.71920
H47         H  0.06302263  0.38328461  0.49910555     0.80070
H48         H  0.44889268  0.49526069  0.11308349     0.81160
H49         H  0.06030181  0.11163826  0.50156934     0.83390
H50         H  0.44450931  0.49523715  0.39146696     0.80990
H51         H  0.49231324  0.44528861  0.18696845     0.44030
H52         H  0.02483776  0.04733031  0.18746960     0.43000
H53         H  0.48915645  0.18796890  0.05094921     0.42680
H54         H  0.02149774  0.18826910  0.44977049     0.40610
H55         H  0.01509999  0.04548233  0.31666581     0.43740
H56         H  0.47614341  0.44048690  0.31615968     0.38530
H57         H  0.49271738  0.30534771  0.45681302     0.44640
H58         H  0.03752911  0.30792974  0.05837159     0.41060
H59         H  0.50261556  0.18940068  0.39221169     0.45980
H60         H  0.99634957  0.38236147  0.31344528     0.44700
H61         H  0.01166072  0.30380507  0.11029584     0.44840
H62         H  0.51152472  0.10889366  0.18983591     0.45190
C63         C  0.22759071  0.21289310  0.27572943    -0.00870
C64         C  0.22992587  0.27638857  0.28131511    -0.00870
C65         C  0.23161266  0.28249488  0.21907758    -0.00870
C66         C  0.22954730  0.21785883  0.21347171    -0.00870
C67         C  0.27576453  0.20875442  0.27768001    -0.00870
C68         C  0.27724812  0.21591730  0.21581314    -0.00870
C69         C  0.27957878  0.28001107  0.22278582    -0.00870
C70         C  0.27773618  0.27272073  0.28455844    -0.00870
C71         C  0.12795495  0.14158575  0.32241335     0.25210
C72         C  0.13721314  0.12947839  0.37567553    -0.22900
C73         C  0.17353546  0.15092768  0.39819600     0.20120
C74         C  0.20099599  0.18098014  0.36678634     0.25150
C75         C  0.19470040  0.18575790  0.31123696    -0.22840
C76         C  0.15538753  0.17075695  0.29139496     0.20050
F77         F  0.14173143  0.18581836  0.24261383    -0.12800
F78         F  0.09207105  0.12472683  0.29962350    -0.15160
F79         F  0.23466651  0.20342164  0.39037772    -0.15160
F80         F  0.18211099  0.14376640  0.45061599    -0.12800
C81         C  0.17721000  0.34904292  0.09874729     0.25210
C82         C  0.14804950  0.38194262  0.12396372    -0.22900
C83         C  0.15328461  0.39364598  0.17807168     0.20120
C84         C  0.18440402  0.36764245  0.20725067     0.25150
C85         C  0.20637022  0.32335485  0.18503038    -0.22840
C86         C  0.20736339  0.32216585  0.12904718     0.20050
F87         F  0.24176979  0.30580736  0.10405653    -0.12800
F88         F  0.17714922  0.34402018  0.04499198    -0.15160
F89         F  0.19634120  0.39076589  0.25387356    -0.15160
F90         F  0.12982221  0.43237834  0.20186164    -0.12800
C91         C  0.35321150  0.17528398  0.10564464     0.25210
C92         C  0.36322922  0.12161976  0.12002622    -0.22900
C93         C  0.33964563  0.09534531  0.15853832     0.20120
C94         C  0.30920981  0.12415138  0.18602631     0.25150
C95         C  0.30243624  0.18059468  0.17666881    -0.22840
C96         C  0.32236815  0.20386282  0.13250906     0.20050
F97         F  0.31098247  0.25304028  0.11297983    -0.12800
F98         F  0.37278890  0.19972117  0.06468561    -0.15160
F99         F  0.28794921  0.09679068  0.22331246    -0.15160
F100        F  0.34710066  0.04217224  0.17094226    -0.12800
C101        C  0.16423317  0.16080498  0.09823110     0.25210
C102        C  0.14598168  0.11587019  0.12249908    -0.22880
C103        C  0.16382058  0.09479041  0.16902179     0.20120
C104        C  0.19549334  0.12366920  0.19489080     0.25150
C105        C  0.20715739  0.17627761  0.17663812    -0.22840
C106        C  0.19639642  0.18832606  0.12372369     0.20050
F107        F  0.22203374  0.21641923  0.09275181    -0.12800
F108        F  0.15217128  0.17645533  0.04871063    -0.15160
F109        F  0.21177404  0.10195299  0.23989895    -0.15160
F110        F  0.14989011  0.04736595  0.19013656    -0.12800
C111        C  0.33874736  0.39385627  0.34281681     0.25210
C112        C  0.36333420  0.36823133  0.38151419    -0.22900
C113        C  0.35640222  0.31331627  0.39368264     0.20120
C114        C  0.32684225  0.28329956  0.36550871     0.25150
C115        C  0.30533037  0.30663574  0.32194587    -0.22840
C116        C  0.30942637  0.36360962  0.31403805     0.20050
F117        F  0.28472782  0.39029067  0.27893591    -0.12800
F118        F  0.34377020  0.44784137  0.33211297    -0.15160
F119        F  0.31645311  0.23409003  0.38541335    -0.15160
F120        F  0.37739191  0.28918300  0.43432549    -0.12800
C121        C  0.34734833  0.17015526  0.29580235     0.25210
C122        C  0.30491341  0.16728557  0.30517831    -0.22900
C123        C  0.29205412  0.12587416  0.34046154     0.20120
C124        C  0.32045129  0.09982133  0.37466307     0.25150
C125        C  0.36278286  0.11084426  0.37074896    -0.22840
C126        C  0.37568286  0.14407606  0.32847553     0.20050
F127        F  0.41603490  0.15045969  0.31666466    -0.12800
F128        F  0.36206619  0.19257105  0.25124476    -0.15160
F129        F  0.30645918  0.06275380  0.41020643    -0.15160
F130        F  0.25349920  0.10577741  0.33827403    -0.12800
C131        C  0.18092629  0.36371537  0.39397283     0.25210
C132        C  0.13990073  0.36708589  0.37623568    -0.22900
C133        C  0.12826357  0.33707788  0.33074119     0.20120
C134        C  0.15698638  0.30665088  0.30272933     0.25150
C135        C  0.19887924  0.30561308  0.31796424    -0.22840
C136        C  0.20972146  0.33232788  0.36613816     0.20050
F137        F  0.24699974  0.32623351  0.38917606    -0.12800
F138        F  0.19321949  0.38958623  0.43924983    -0.15160
F139        F  0.14404420  0.28325201  0.25682716    -0.15160
F140        F  0.08918849  0.33891636  0.31119884    -0.12800
C141        C  0.30089364  0.36467987  0.16520242     0.25210
C142        C  0.31150083  0.31904061  0.19716639    -0.22900
C143        C  0.35389920  0.31032661  0.20508624     0.20120
C144        C  0.38292065  0.33407246  0.17198126     0.25150
C145        C  0.37090471  0.37247525  0.13311965    -0.22840
C146        C  0.32957941  0.38910761  0.13187750     0.20050
F147        F  0.31696410  0.43143321  0.10081016    -0.12800
F148        F  0.26528460  0.39197171  0.17120669    -0.15160
F149        F  0.42305138  0.32086760  0.18018303    -0.15160
F150        F  0.36819832  0.28620515  0.24957915    -0.12800
O151        O  0.43332649  0.38554669  0.89787170    -0.73680
O152        O  0.38551463  0.43457795  0.94381721    -0.52590
C153        C  0.39610391  0.39827589  0.90952152     0.80050
O154        O  0.07760752  0.39690711  0.60882933    -0.58280
O155        O  0.12385837  0.43881401  0.55479022    -0.51310
C156        C  0.11439318  0.40754074  0.59373839     0.72070
O157        O  0.43992766  0.38859395  0.60909827    -0.72840
O158        O  0.38957984  0.43371201  0.56353758    -0.53400
C159        C  0.40199723  0.39975014  0.59936917     0.78070
O160        O  0.07088684  0.38722971  0.89609534    -0.57980
O161        O  0.12057291  0.43698651  0.93822481    -0.51100
C162        C  0.10866657  0.39943433  0.90547528     0.74660
Zr163      Zr  0.00263274  0.41533298  0.92207811     2.54710
O164        O  0.00339864  0.31576770  0.92157226    -0.78550
O165        O  0.00167054  0.42036240  0.82534004    -0.91960
Zr166      Zr  0.00736361  0.41568719  0.57911393     2.64680
O167        O  0.51007644  0.31628390  0.57290700    -0.96920
O168        O  0.00874972  0.41319043  0.67590147    -0.78980
O169        O  0.46468807  0.41285899  0.50188482    -0.82340
O170        O  0.04503515  0.41474540  0.99930178    -2.17050
O171        O  0.06893406  0.10787066  0.89674113    -0.65730
O172        O  0.11991553  0.06232566  0.94104608    -0.50290
C173        C  0.10701952  0.09801456  0.90705486     0.73040
O174        O  0.43409156  0.10647518  0.60371414    -0.58630
O175        O  0.38600579  0.05403497  0.56044839    -0.50610
C176        C  0.39665384  0.09218398  0.59296481     0.74850
O177        O  0.07507434  0.09974681  0.60896859    -0.70030
O178        O  0.12216749  0.05456039  0.55798881    -0.48710
C179        C  0.11212872  0.08771814  0.59523796     0.76230
O180        O  0.43164937  0.09865214  0.89750220    -0.65360
O181        O  0.38342021  0.05027947  0.94171267    -0.52560
C182        C  0.39425836  0.08497824  0.90609374     0.74610
Zr183      Zr  0.50139549  0.07756180  0.92402938     2.77540
O184        O  0.49699037  0.17692561  0.92883205    -0.96110
O185        O  0.50052419  0.07931266  0.82725658    -0.76930
Zr186      Zr  0.50440447  0.07737759  0.58088503     2.70070
O187        O  0.00737617  0.17687304  0.58084483    -0.78180
O188        O  0.50214030  0.07244437  0.67750693    -0.97260
Zr189      Zr  0.42447943  0.49444660  0.50256313     2.21500
Zr190      Zr  0.08330788  0.99784010  0.99762412     2.11130
O191        O  0.04305087  0.07951518  0.00142507    -2.45950
O192        O  0.46250270  0.07789644  0.50300205    -0.77970
O193        O  0.04197613  0.99713695  0.91908667    -0.70170
O194        O  0.46579840  0.49546069  0.58178000    -2.31120
O195        O  0.46247875  0.49575390  0.92228140    -2.27330
O196        O  0.04593496  0.99751193  0.57876973    -0.71920
H197        H  0.06302271  0.38328587  0.99910558     0.80070
H198        H  0.44889370  0.49526018  0.61308392     0.81160
H199        H  0.06030034  0.11163954  0.00156905     0.83390
H200        H  0.44450879  0.49523688  0.89146639     0.80990
H201        H  0.49231132  0.44528480  0.68696860     0.44030
H202        H  0.02484030  0.04732441  0.68746909     0.43000
H203        H  0.48916325  0.18796831  0.55094872     0.42680
H204        H  0.02149508  0.18826961  0.94977191     0.40610
H205        H  0.01509478  0.04548158  0.81666486     0.43740
H206        H  0.47614319  0.44048578  0.81615927     0.38530
H207        H  0.49271559  0.30534862  0.95681436     0.44640
H208        H  0.03752710  0.30792797  0.55836956     0.41060
H209        H  0.50261278  0.18940170  0.89221312     0.45980
H210        H  0.99634780  0.38235929  0.81344606     0.44700
H211        H  0.01166019  0.30380375  0.61029510     0.44840
H212        H  0.51152890  0.10888823  0.68983782     0.45190
C213        C  0.22759066  0.21289296  0.77573070    -0.00870
C214        C  0.22992505  0.27638858  0.78131469    -0.00870
C215        C  0.23161217  0.28249289  0.71907706    -0.00870
C216        C  0.22954781  0.21785669  0.71347294    -0.00870
C217        C  0.27576444  0.20875534  0.77768165    -0.00870
C218        C  0.27724857  0.21591683  0.71581466    -0.00870
C219        C  0.27957829  0.28001073  0.72278584    -0.00870
C220        C  0.27773534  0.27272178  0.78455862    -0.00870
C221        C  0.12795347  0.14158995  0.82241481     0.25210
C222        C  0.13721143  0.12948217  0.87567701    -0.22900
C223        C  0.17353369  0.15093119  0.89819791     0.20120
C224        C  0.20099506  0.18098222  0.86678815     0.25150
C225        C  0.19469982  0.18575951  0.81123864    -0.22840
C226        C  0.15538660  0.17076039  0.79139662     0.20050
F227        F  0.14173131  0.18582156  0.74261502    -0.12800
F228        F  0.09206947  0.12473184  0.79962466    -0.15160
F229        F  0.23466584  0.20342293  0.89037957    -0.15160
F230        F  0.18210816  0.14377132  0.95061844    -0.12800
C231        C  0.17720622  0.34903345  0.59874591     0.25210
C232        C  0.14804875  0.38193814  0.62396201    -0.22900
C233        C  0.15328652  0.39364539  0.67806874     0.20120
C234        C  0.18440557  0.36764129  0.70724764     0.25150
C235        C  0.20636903  0.32335051  0.68502878    -0.22840
C236        C  0.20735969  0.32215651  0.62904564     0.20050
F237        F  0.24176533  0.30579693  0.60405429    -0.12800
F238        F  0.17714300  0.34400675  0.54499089    -0.15160
F239        F  0.19634461  0.39076584  0.75386926    -0.15160
F240        F  0.12982679  0.43238146  0.70185743    -0.12800
C241        C  0.35321471  0.17528382  0.60564908     0.25210
C242        C  0.36323146  0.12161913  0.62003006    -0.22900
C243        C  0.33964667  0.09534459  0.65854105     0.20120
C244        C  0.30921046  0.12415095  0.68602837     0.25150
C245        C  0.30243767  0.18059439  0.67667116    -0.22840
C246        C  0.32237081  0.20386265  0.63251238     0.20050
F247        F  0.31098512  0.25303964  0.61298198    -0.12800
F248        F  0.37279329  0.19972132  0.56469117    -0.15160
F249        F  0.28794803  0.09679040  0.72331299    -0.15160
F250        F  0.34710063  0.04217109  0.67094425    -0.12800
C251        C  0.16424206  0.16079665  0.59822796     0.25210
C252        C  0.14598443  0.11586766  0.62249873    -0.22880
C253        C  0.16381822  0.09479062  0.66902584     0.20120
C254        C  0.19549147  0.12366778  0.69489545     0.25150
C255        C  0.20715918  0.17627363  0.67664021    -0.22840
C256        C  0.19640519  0.18831655  0.62372244     0.20050
F257        F  0.22204903  0.21640131  0.59275195    -0.12800
F258        F  0.15218570  0.17644280  0.54870417    -0.15160
F259        F  0.21177032  0.10195206  0.73990497    -0.15160
F260        F  0.14988302  0.04737002  0.69014343    -0.12800
C261        C  0.33874677  0.39385738  0.84281585     0.25210
C262        C  0.36333357  0.36823235  0.88151328    -0.22900
C263        C  0.35640097  0.31331768  0.89368259     0.20120
C264        C  0.32684063  0.28330123  0.86550923     0.25150
C265        C  0.30532899  0.30663724  0.82194611    -0.22840
C266        C  0.30942544  0.36361091  0.81403747     0.20050
F267        F  0.28472770  0.39029163  0.77893406    -0.12800
F268        F  0.34377010  0.44784228  0.83211146    -0.15160
F269        F  0.31645106  0.23409210  0.88541444    -0.15160
F270        F  0.37739049  0.28918458  0.93432569    -0.12800
C271        C  0.34734791  0.17015687  0.79580430     0.25210
C272        C  0.30491303  0.16728666  0.80517993    -0.22900
C273        C  0.29205345  0.12587478  0.84046243     0.20120
C274        C  0.32045049  0.09982092  0.87466323     0.25150
C275        C  0.36278205  0.11084366  0.87074915    -0.22840
C276        C  0.37568225  0.14407648  0.82847660     0.20050
F277        F  0.41603430  0.15046046  0.81666598    -0.12800
F278        F  0.36206601  0.19257554  0.75124822    -0.15160
F279        F  0.30645825  0.06275282  0.91020594    -0.15160
F280        F  0.25349822  0.10577908  0.83827531    -0.12800
C281        C  0.18092559  0.36371718  0.89397143     0.25210
C282        C  0.13990035  0.36708937  0.87623350    -0.22900
C283        C  0.12826321  0.33708256  0.83073826     0.20120
C284        C  0.15698562  0.30665414  0.80272711     0.25150
C285        C  0.19887830  0.30561447  0.81796291    -0.22840
C286        C  0.20972042  0.33232867  0.86613722     0.20050
F287        F  0.24699802  0.32623194  0.88917640    -0.12800
F288        F  0.19321869  0.38958699  0.93924902    -0.15160
F289        F  0.14404319  0.28325515  0.75682514    -0.15160
F290        F  0.08918849  0.33892325  0.81119482    -0.12800
C291        C  0.30089232  0.36467675  0.66519792     0.25210
C292        C  0.31150003  0.31904067  0.69716597    -0.22900
C293        C  0.35389858  0.31032996  0.70508898     0.20120
C294        C  0.38292052  0.33407685  0.67198535     0.25150
C295        C  0.37090457  0.37247583  0.63312017    -0.22840
C296        C  0.32957846  0.38910429  0.63187341     0.20050
F297        F  0.31696233  0.43142593  0.60080152    -0.12800
F298        F  0.26528199  0.39196652  0.67119735    -0.15160
F299        F  0.42305161  0.32087688  0.68019193    -0.15160
F300        F  0.36819710  0.28621011  0.74958307    -0.12800
O301        O  0.43332698  0.88554599  0.39787250    -0.73680
O302        O  0.38551525  0.93457764  0.44381791    -0.52590
C303        C  0.39610445  0.89827519  0.40952245     0.80050
O304        O  0.07760779  0.89691070  0.10883078    -0.58280
O305        O  0.12385828  0.93881640  0.05479037    -0.51310
C306        C  0.11439346  0.90754422  0.09373954     0.72070
O307        O  0.43992762  0.88859444  0.10909804    -0.72840
O308        O  0.38957942  0.93371122  0.06353679    -0.53400
C309        C  0.40199710  0.89974980  0.09936860     0.78070
O310        O  0.07088715  0.88722739  0.39609669    -0.57980
O311        O  0.12057345  0.93698401  0.43822584    -0.51100
C312        C  0.10866696  0.89943148  0.40547683     0.74660
Zr313      Zr  0.00263312  0.91533273  0.42207810     2.54710
O314        O  0.00339823  0.81576746  0.42156999    -0.78550
O315        O  0.00167125  0.92036449  0.32534017    -0.91960
Zr316      Zr  0.00736353  0.91568827  0.07911407     2.64680
O317        O  0.51007789  0.81628503  0.07290756    -0.96920
O318        O  0.00874876  0.91319147  0.17590160    -0.78980
O319        O  0.46468790  0.91285899  0.00188493    -0.82340
O320        O  0.04503535  0.91474442  0.49930178    -2.17050
O321        O  0.06893564  0.60786850  0.39674089    -0.65730
O322        O  0.11991696  0.56232256  0.44104521    -0.50290
C323        C  0.10702110  0.59801154  0.40705400     0.73040
O324        O  0.43408942  0.60647659  0.10371120    -0.58630
O325        O  0.38600426  0.55403499  0.06044601    -0.50610
C326        C  0.39665188  0.59218490  0.09296157     0.74850
O327        O  0.07507200  0.59974885  0.10896819    -0.70030
O328        O  0.12216577  0.55456075  0.05799070    -0.48710
C329        C  0.11212649  0.58771932  0.09523892     0.76230
O330        O  0.43165046  0.59865294  0.39750224    -0.65360
O331        O  0.38342121  0.55028062  0.44171305    -0.52560
C332        C  0.39425937  0.58497921  0.40609387     0.74610
Zr333      Zr  0.50139660  0.57756141  0.42402977     2.77540
O334        O  0.49699289  0.67692540  0.42883082    -0.96110
O335        O  0.50052507  0.57931034  0.32725692    -0.76930
Zr336      Zr  0.50440263  0.57737888  0.08088405     2.70070
O337        O  0.00737401  0.67687434  0.08084089    -0.78180
O338        O  0.50213724  0.57244894  0.17750603    -0.97260
Zr339      Zr  0.42447880  0.99444617  0.00256260     2.21500
Zr340      Zr  0.08330869  0.49783865  0.49762417     2.11130
O341        O  0.04305213  0.57951409  0.50142548    -2.45950
O342        O  0.46250114  0.57789662  0.00300110    -0.77970
O343        O  0.04197694  0.49713626  0.41908676    -0.70170
O344        O  0.46579748  0.99546120  0.08177967    -2.31120
O345        O  0.46247934  0.99575396  0.42228189    -2.27330
O346        O  0.04593382  0.49751374  0.07876938    -0.71920
H347        H  0.06302262  0.88328461  0.49910557     0.80070
H348        H  0.44889268  0.99526068  0.11308350     0.81160
H349        H  0.06030181  0.61163827  0.50156935     0.83390
H350        H  0.44450930  0.99523715  0.39146696     0.80990
H351        H  0.49231328  0.94528858  0.18696846     0.44030
H352        H  0.02483776  0.54733035  0.18746959     0.43000
H353        H  0.48915645  0.68796890  0.05094917     0.42680
H354        H  0.02149775  0.68826911  0.44977053     0.40610
H355        H  0.01509998  0.54548237  0.31666581     0.43740
H356        H  0.47614341  0.94048691  0.31615968     0.38530
H357        H  0.49271731  0.80534771  0.45681301     0.44640
H358        H  0.03752910  0.80792973  0.05837156     0.41060
H359        H  0.50261555  0.68940069  0.39221170     0.45980
H360        H  0.99634954  0.88236141  0.31344531     0.44700
H361        H  0.01166069  0.80380504  0.11029578     0.44840
H362        H  0.51152472  0.60889368  0.18983590     0.45190
C363        C  0.22759072  0.71289309  0.27572942    -0.00870
C364        C  0.22992586  0.77638856  0.28131511    -0.00870
C365        C  0.23161266  0.78249487  0.21907758    -0.00870
C366        C  0.22954731  0.71785882  0.21347171    -0.00870
C367        C  0.27576454  0.70875442  0.27768001    -0.00870
C368        C  0.27724813  0.71591731  0.21581314    -0.00870
C369        C  0.27957877  0.78001108  0.22278583    -0.00870
C370        C  0.27773617  0.77272073  0.28455845    -0.00870
C371        C  0.12795494  0.64158577  0.32241336     0.25210
C372        C  0.13721314  0.62947839  0.37567554    -0.22900
C373        C  0.17353548  0.65092765  0.39819599     0.20120
C374        C  0.20099601  0.68098011  0.36678634     0.25150
C375        C  0.19470040  0.68575789  0.31123696    -0.22840
C376        C  0.15538753  0.67075697  0.29139497     0.20050
F377        F  0.14173143  0.68581839  0.24261384    -0.12800
F378        F  0.09207103  0.62472688  0.29962352    -0.15160
F379        F  0.23466654  0.70342159  0.39037771    -0.15160
F380        F  0.18211102  0.64376635  0.45061598    -0.12800
C381        C  0.17720997  0.84904287  0.09874729     0.25210
C382        C  0.14804948  0.88194259  0.12396371    -0.22900
C383        C  0.15328461  0.89364597  0.17807167     0.20120
C384        C  0.18440401  0.86764244  0.20725066     0.25150
C385        C  0.20637020  0.82335483  0.18503037    -0.22840
C386        C  0.20736336  0.82216581  0.12904718     0.20050
F387        F  0.24176976  0.80580731  0.10405652    -0.12800
F388        F  0.17714919  0.84402011  0.04499198    -0.15160
F389        F  0.19634119  0.89076588  0.25387354    -0.15160
F390        F  0.12982222  0.93237835  0.20186162    -0.12800
C391        C  0.35321153  0.67528401  0.10564466     0.25210
C392        C  0.36322922  0.62161977  0.12002621    -0.22900
C393        C  0.33964562  0.59534531  0.15853829     0.20120
C394        C  0.30920980  0.62415140  0.18602629     0.25150
C395        C  0.30243625  0.68059470  0.17666880    -0.22840
C396        C  0.32236818  0.70386285  0.13250907     0.20050
F397        F  0.31098251  0.75304032  0.11297985    -0.12800
F398        F  0.37278894  0.69972121  0.06468564    -0.15160
F399        F  0.28794919  0.59679069  0.22331242    -0.15160
F400        F  0.34710063  0.54217224  0.17094221    -0.12800
C401        C  0.16423322  0.66080496  0.09823107     0.25210
C402        C  0.14598169  0.61587020  0.12249906    -0.22880
C403        C  0.16382055  0.59479043  0.16902179     0.20120
C404        C  0.19549332  0.62366920  0.19489081     0.25150
C405        C  0.20715739  0.67627760  0.17663812    -0.22840
C406        C  0.19639647  0.68832602  0.12372367     0.20050
F407        F  0.22203384  0.71641913  0.09275180    -0.12800
F408        F  0.15217137  0.67645529  0.04871058    -0.15160
F409        F  0.21177401  0.60195298  0.23989896    -0.15160
F410        F  0.14989006  0.54736599  0.19013657    -0.12800
C411        C  0.33874732  0.89385628  0.34281684     0.25210
C412        C  0.36333418  0.86823135  0.38151419    -0.22900
C413        C  0.35640222  0.81331627  0.39368262     0.20120
C414        C  0.32684225  0.78329956  0.36550871     0.25150
C415        C  0.30533035  0.80663575  0.32194588    -0.22840
C416        C  0.30942634  0.86360963  0.31403807     0.20050
F417        F  0.28472778  0.89029068  0.27893594    -0.12800
F418        F  0.34377014  0.94784139  0.33211301    -0.15160
F419        F  0.31645314  0.73409002  0.38541333    -0.15160
F420        F  0.37739194  0.78918300  0.43432545    -0.12800
C421        C  0.34734834  0.67015527  0.29580233     0.25210
C422        C  0.30491342  0.66728556  0.30517829    -0.22900
C423        C  0.29205413  0.62587414  0.34046151     0.20120
C424        C  0.32045130  0.59982130  0.37466303     0.25150
C425        C  0.36278287  0.61084424  0.37074892    -0.22840
C426        C  0.37568287  0.64407606  0.32847551     0.20050
F427        F  0.41603491  0.65045970  0.31666464    -0.12800
F428        F  0.36206620  0.69257108  0.25124476    -0.15160
F429        F  0.30645919  0.56275376  0.41020637    -0.15160
F430        F  0.25349921  0.60577738  0.33827399    -0.12800
C431        C  0.18092628  0.86371533  0.39397285     0.25210
C432        C  0.13990073  0.86708588  0.37623569    -0.22900
C433        C  0.12826357  0.83707789  0.33074118     0.20120
C434        C  0.15698638  0.80665088  0.30272932     0.25150
C435        C  0.19887923  0.80561306  0.31796424    -0.22840
C436        C  0.20972144  0.83232784  0.36613818     0.20050
F437        F  0.24699972  0.82623341  0.38917610    -0.12800
F438        F  0.19321948  0.88958615  0.43924987    -0.15160
F439        F  0.14404419  0.78325203  0.25682715    -0.15160
F440        F  0.08918849  0.83891640  0.31119882    -0.12800
C441        C  0.30089363  0.86467987  0.16520241     0.25210
C442        C  0.31150082  0.81904063  0.19716640    -0.22900
C443        C  0.35389919  0.81032665  0.20508629     0.20120
C444        C  0.38292065  0.83407252  0.17198133     0.25150
C445        C  0.37090471  0.87247528  0.13311968    -0.22840
C446        C  0.32957940  0.88910761  0.13187749     0.20050
F447        F  0.31696409  0.93143318  0.10081012    -0.12800
F448        F  0.26528458  0.89197169  0.17120665    -0.15160
F449        F  0.42305139  0.82086770  0.18018314    -0.15160
F450        F  0.36819830  0.78620519  0.24957920    -0.12800
O451        O  0.43332649  0.88554671  0.89787169    -0.73680
O452        O  0.38551463  0.93457795  0.94381722    -0.52590
C453        C  0.39610390  0.89827590  0.90952153     0.80050
O454        O  0.07760752  0.89690711  0.60882934    -0.58280
O455        O  0.12385837  0.93881401  0.55479022    -0.51310
C456        C  0.11439318  0.90754074  0.59373840     0.72070
O457        O  0.43992765  0.88859394  0.60909827    -0.72840
O458        O  0.38957984  0.93371201  0.56353759    -0.53400
C459        C  0.40199722  0.89975013  0.59936917     0.78070
O460        O  0.07088683  0.88722973  0.89609532    -0.57980
O461        O  0.12057291  0.93698651  0.93822481    -0.51100
C462        C  0.10866657  0.89943434  0.90547527     0.74660
Zr463      Zr  0.00263273  0.91533300  0.92207809     2.54710
O464        O  0.00339862  0.81576773  0.92157219    -0.78550
O465        O  0.00167053  0.92036246  0.82534002    -0.91960
Zr466      Zr  0.00736361  0.91568719  0.57911395     2.64680
O467        O  0.51007643  0.81628388  0.57290699    -0.96920
O468        O  0.00874972  0.91319046  0.67590149    -0.78980
O469        O  0.46468806  0.91285898  0.50188482    -0.82340
O470        O  0.04503515  0.91474540  0.99930176    -2.17050
O471        O  0.06893406  0.60787064  0.89674111    -0.65730
O472        O  0.11991553  0.56232565  0.94104606    -0.50290
C473        C  0.10701952  0.59801454  0.90705484     0.73040
O474        O  0.43409156  0.60647519  0.60371413    -0.58630
O475        O  0.38600579  0.55403498  0.56044839    -0.50610
C476        C  0.39665384  0.59218399  0.59296480     0.74850
O477        O  0.07507435  0.59974681  0.60896859    -0.70030
O478        O  0.12216749  0.55456039  0.55798881    -0.48710
C479        C  0.11212873  0.58771814  0.59523796     0.76230
O480        O  0.43164938  0.59865213  0.89750218    -0.65360
O481        O  0.38342021  0.55027947  0.94171266    -0.52560
C482        C  0.39425837  0.58497824  0.90609373     0.74610
Zr483      Zr  0.50139549  0.57756179  0.92402937     2.77540
O484        O  0.49699037  0.67692560  0.92883201    -0.96110
O485        O  0.50052420  0.57931262  0.82725656    -0.76930
Zr486      Zr  0.50440448  0.57737760  0.58088502     2.70070
O487        O  0.00737617  0.67687303  0.58084486    -0.78180
O488        O  0.50214030  0.57244439  0.67750692    -0.97260
Zr489      Zr  0.42447943  0.99444660  0.50256314     2.21500
Zr490      Zr  0.08330788  0.49784010  0.99762411     2.11130
O491        O  0.04305087  0.57951518  0.00142505    -2.45950
O492        O  0.46250271  0.57789645  0.50300204    -0.77970
O493        O  0.04197614  0.49713692  0.91908666    -0.70170
O494        O  0.46579839  0.99546068  0.58178001    -2.31120
O495        O  0.46247874  0.99575391  0.92228141    -2.27330
O496        O  0.04593497  0.49751192  0.57876973    -0.71920
H497        H  0.06302270  0.88328587  0.99910556     0.80070
H498        H  0.44889370  0.99526016  0.61308393     0.81160
H499        H  0.06030034  0.61163954  0.00156901     0.83390
H500        H  0.44450879  0.99523690  0.89146640     0.80990
H501        H  0.49231132  0.94528478  0.68696860     0.44030
H502        H  0.02484031  0.54732439  0.68746909     0.43000
H503        H  0.48916324  0.68796832  0.55094872     0.42680
H504        H  0.02149507  0.68826959  0.94977185     0.40610
H505        H  0.01509480  0.54548152  0.81666485     0.43740
H506        H  0.47614319  0.94048581  0.81615927     0.38530
H507        H  0.49271559  0.80534862  0.95681433     0.44640
H508        H  0.03752709  0.80792797  0.55836958     0.41060
H509        H  0.50261280  0.68940168  0.89221308     0.45980
H510        H  0.99634780  0.88235935  0.81344603     0.44700
H511        H  0.01166021  0.80380376  0.61029514     0.44840
H512        H  0.51152890  0.60888826  0.68983781     0.45190
C513        C  0.22759066  0.71289296  0.77573070    -0.00870
C514        C  0.22992505  0.77638858  0.78131469    -0.00870
C515        C  0.23161216  0.78249289  0.71907706    -0.00870
C516        C  0.22954781  0.71785668  0.71347294    -0.00870
C517        C  0.27576444  0.70875534  0.77768165    -0.00870
C518        C  0.27724857  0.71591684  0.71581466    -0.00870
C519        C  0.27957829  0.78001073  0.72278584    -0.00870
C520        C  0.27773534  0.77272178  0.78455862    -0.00870
C521        C  0.12795347  0.64158996  0.82241480     0.25210
C522        C  0.13721143  0.62948216  0.87567699    -0.22900
C523        C  0.17353370  0.65093117  0.89819789     0.20120
C524        C  0.20099506  0.68098220  0.86678814     0.25150
C525        C  0.19469982  0.68575951  0.81123863    -0.22840
C526        C  0.15538660  0.67076040  0.79139661     0.20050
F527        F  0.14173131  0.68582157  0.74261501    -0.12800
F528        F  0.09206946  0.62473186  0.79962465    -0.15160
F529        F  0.23466584  0.70342290  0.89037956    -0.15160
F530        F  0.18210817  0.64377128  0.95061842    -0.12800
C531        C  0.17720621  0.84903344  0.59874592     0.25210
C532        C  0.14804875  0.88193814  0.62396202    -0.22900
C533        C  0.15328652  0.89364540  0.67806874     0.20120
C534        C  0.18440557  0.86764129  0.70724764     0.25150
C535        C  0.20636903  0.82335050  0.68502879    -0.22840
C536        C  0.20735968  0.82215649  0.62904564     0.20050
F537        F  0.24176532  0.80579692  0.60405429    -0.12800
F538        F  0.17714298  0.84400673  0.54499089    -0.15160
F539        F  0.19634462  0.89076584  0.75386926    -0.15160
F540        F  0.12982680  0.93238148  0.70185743    -0.12800
C541        C  0.35321471  0.67528383  0.60564908     0.25210
C542        C  0.36323146  0.62161914  0.62003005    -0.22900
C543        C  0.33964667  0.59534459  0.65854104     0.20120
C544        C  0.30921047  0.62415096  0.68602836     0.25150
C545        C  0.30243767  0.68059440  0.67667116    -0.22840
C546        C  0.32237082  0.70386267  0.63251238     0.20050
F547        F  0.31098513  0.75303965  0.61298199    -0.12800
F548        F  0.37279330  0.69972134  0.56469118    -0.15160
F549        F  0.28794803  0.59679040  0.72331298    -0.15160
F550        F  0.34710062  0.54217109  0.67094423    -0.12800
C551        C  0.16424207  0.66079663  0.59822795     0.25210
C552        C  0.14598444  0.61586766  0.62249873    -0.22880
C553        C  0.16381822  0.59479062  0.66902585     0.20120
C554        C  0.19549147  0.62366778  0.69489545     0.25150
C555        C  0.20715918  0.67627363  0.67664021    -0.22840
C556        C  0.19640520  0.68831654  0.62372243     0.20050
F557        F  0.22204906  0.71640128  0.59275194    -0.12800
F558        F  0.15218573  0.67644277  0.54870415    -0.15160
F559        F  0.21177032  0.60195206  0.73990498    -0.15160
F560        F  0.14988301  0.54737003  0.69014344    -0.12800
C561        C  0.33874676  0.89385739  0.84281586     0.25210
C562        C  0.36333356  0.86823235  0.88151328    -0.22900
C563        C  0.35640097  0.81331769  0.89368259     0.20120
C564        C  0.32684062  0.78330123  0.86550923     0.25150
C565        C  0.30532898  0.80663724  0.82194612    -0.22840
C566        C  0.30942543  0.86361092  0.81403748     0.20050
F567        F  0.28472769  0.89029164  0.77893407    -0.12800
F568        F  0.34377009  0.94784229  0.83211147    -0.15160
F569        F  0.31645106  0.73409210  0.88541444    -0.15160
F570        F  0.37739049  0.78918458  0.93432569    -0.12800
C571        C  0.34734792  0.67015688  0.79580430     0.25210
C572        C  0.30491303  0.66728667  0.80517993    -0.22900
C573        C  0.29205346  0.62587478  0.84046242     0.20120
C574        C  0.32045050  0.59982092  0.87466321     0.25150
C575        C  0.36278206  0.61084366  0.87074914    -0.22840
C576        C  0.37568226  0.64407649  0.82847659     0.20050
F577        F  0.41603431  0.65046048  0.81666598    -0.12800
F578        F  0.36206601  0.69257556  0.75124822    -0.15160
F579        F  0.30645826  0.56275281  0.91020592    -0.15160
F580        F  0.25349823  0.60577907  0.83827530    -0.12800
C581        C  0.18092558  0.86371717  0.89397144     0.25210
C582        C  0.13990034  0.86708938  0.87623350    -0.22900
C583        C  0.12826320  0.83708257  0.83073825     0.20120
C584        C  0.15698562  0.80665414  0.80272710     0.25150
C585        C  0.19887829  0.80561446  0.81796291    -0.22840
C586        C  0.20972041  0.83232866  0.86613722     0.20050
F587        F  0.24699801  0.82623191  0.88917641    -0.12800
F588        F  0.19321868  0.88958697  0.93924903    -0.15160
F589        F  0.14404318  0.78325516  0.75682513    -0.15160
F590        F  0.08918849  0.83892327  0.81119480    -0.12800
C591        C  0.30089232  0.86467675  0.66519791     0.25210
C592        C  0.31150002  0.81904067  0.69716598    -0.22900
C593        C  0.35389857  0.81032998  0.70508900     0.20120
C594        C  0.38292051  0.83407687  0.67198537     0.25150
C595        C  0.37090457  0.87247584  0.63312017    -0.22840
C596        C  0.32957845  0.88910428  0.63187341     0.20050
F597        F  0.31696232  0.93142591  0.60080150    -0.12800
F598        F  0.26528198  0.89196651  0.67119734    -0.15160
F599        F  0.42305161  0.82087690  0.68019196    -0.15160
F600        F  0.36819709  0.78621014  0.74958310    -0.12800
O601        O  0.93332699  0.38554600  0.39787249    -0.73680
O602        O  0.88551525  0.43457764  0.44381790    -0.52590
C603        C  0.89610445  0.39827520  0.40952244     0.80050
O604        O  0.57760779  0.39691071  0.10883079    -0.58280
O605        O  0.62385828  0.43881641  0.05479038    -0.51310
C606        C  0.61439346  0.40754423  0.09373955     0.72070
O607        O  0.93992762  0.38859444  0.10909804    -0.72840
O608        O  0.88957942  0.43371121  0.06353679    -0.53400
C609        C  0.90199710  0.39974979  0.09936860     0.78070
O610        O  0.57088715  0.38722740  0.39609669    -0.57980
O611        O  0.62057345  0.43698402  0.43822585    -0.51100
C612        C  0.60866697  0.39943150  0.40547683     0.74660
Zr613      Zr  0.50263313  0.41533274  0.42207810     2.54710
O614        O  0.50339824  0.31576747  0.42156996    -0.78550
O615        O  0.50167126  0.42036452  0.32534017    -0.91960
Zr616      Zr  0.50736353  0.41568829  0.07911408     2.64680
O617        O  0.01007789  0.31628503  0.07290760    -0.96920
O618        O  0.50874875  0.41319154  0.17590161    -0.78980
O619        O  0.96468790  0.41285899  0.00188494    -0.82340
O620        O  0.54503536  0.41474442  0.49930179    -2.17050
O621        O  0.56893564  0.10786849  0.39674089    -0.65730
O622        O  0.61991695  0.06232256  0.44104521    -0.50290
C623        C  0.60702110  0.09801154  0.40705401     0.73040
O624        O  0.93408942  0.10647657  0.10371123    -0.58630
O625        O  0.88600426  0.05403498  0.06044602    -0.50610
C626        C  0.89665188  0.09218489  0.09296159     0.74850
O627        O  0.57507199  0.09974884  0.10896820    -0.70030
O628        O  0.62216577  0.05456074  0.05799070    -0.48710
C629        C  0.61212649  0.08771932  0.09523893     0.76230
O630        O  0.93165046  0.09865294  0.39750225    -0.65360
O631        O  0.88342121  0.05028062  0.44171306    -0.52560
C632        C  0.89425936  0.08497921  0.40609388     0.74610
Zr633      Zr  0.00139659  0.07756141  0.42402977     2.77540
O634        O  0.99699289  0.17692539  0.42883080    -0.96110
O635        O  0.00052506  0.07931031  0.32725692    -0.76930
Zr636      Zr  0.00440262  0.07737886  0.08088408     2.70070
O637        O  0.50737400  0.17687434  0.08084091    -0.78180
O638        O  0.00213724  0.07244889  0.17750606    -0.97260
Zr639      Zr  0.92447880  0.49444617  0.00256260     2.21500
Zr640      Zr  0.58330868  0.99783864  0.49762418     2.11130
O641        O  0.54305213  0.07951409  0.50142548    -2.45950
O642        O  0.96250114  0.07789663  0.00300112    -0.77970
O643        O  0.54197694  0.99713625  0.41908677    -0.70170
O644        O  0.96579748  0.49546121  0.08177967    -2.31120
O645        O  0.96247934  0.49575397  0.42228188    -2.27330
O646        O  0.54593381  0.99751373  0.07876938    -0.71920
H647        H  0.56302263  0.38328462  0.49910557     0.80070
H648        H  0.94889268  0.49526069  0.11308350     0.81160
H649        H  0.56030181  0.11163826  0.50156936     0.83390
H650        H  0.94450931  0.49523716  0.39146695     0.80990
H651        H  0.99231326  0.44528861  0.18696846     0.44030
H652        H  0.52483777  0.04733033  0.18746959     0.43000
H653        H  0.98915645  0.18796889  0.05094923     0.42680
H654        H  0.52149774  0.18826911  0.44977051     0.40610
H655        H  0.51510000  0.04548235  0.31666582     0.43740
H656        H  0.97614340  0.44048693  0.31615967     0.38530
H657        H  0.99271735  0.30534772  0.45681298     0.44640
H658        H  0.53752910  0.30792974  0.05837158     0.41060
H659        H  0.00261556  0.18940068  0.39221168     0.45980
H660        H  0.49634958  0.38236144  0.31344530     0.44700
H661        H  0.51166073  0.30380508  0.11029584     0.44840
H662        H  0.01152472  0.10889363  0.18983593     0.45190
C663        C  0.72759072  0.21289310  0.27572943    -0.00870
C664        C  0.72992586  0.27638856  0.28131512    -0.00870
C665        C  0.73161265  0.28249487  0.21907758    -0.00870
C666        C  0.72954730  0.21785881  0.21347172    -0.00870
C667        C  0.77576454  0.20875443  0.27768002    -0.00870
C668        C  0.77724812  0.21591731  0.21581315    -0.00870
C669        C  0.77957877  0.28001107  0.22278583    -0.00870
C670        C  0.77773617  0.27272073  0.28455845    -0.00870
C671        C  0.62795494  0.14158577  0.32241337     0.25210
C672        C  0.63721314  0.12947839  0.37567555    -0.22900
C673        C  0.67353547  0.15092767  0.39819601     0.20120
C674        C  0.70099600  0.18098013  0.36678636     0.25150
C675        C  0.69470040  0.18575790  0.31123697    -0.22840
C676        C  0.65538753  0.17075697  0.29139498     0.20050
F677        F  0.64173142  0.18581839  0.24261386    -0.12800
F678        F  0.59207103  0.12472687  0.29962352    -0.15160
F679        F  0.73466653  0.20342161  0.39037773    -0.15160
F680        F  0.68211101  0.14376637  0.45061600    -0.12800
C681        C  0.67720997  0.34904288  0.09874729     0.25210
C682        C  0.64804949  0.38194260  0.12396372    -0.22900
C683        C  0.65328461  0.39364598  0.17807168     0.20120
C684        C  0.68440402  0.36764245  0.20725067     0.25150
C685        C  0.70637020  0.32335483  0.18503038    -0.22840
C686        C  0.70736336  0.32216580  0.12904719     0.20050
F687        F  0.74176976  0.30580730  0.10405653    -0.12800
F688        F  0.67714918  0.34402011  0.04499198    -0.15160
F689        F  0.69634120  0.39076588  0.25387355    -0.15160
F690        F  0.62982223  0.43237836  0.20186163    -0.12800
C691        C  0.85321152  0.17528399  0.10564467     0.25210
C692        C  0.86322922  0.12161976  0.12002624    -0.22900
C693        C  0.83964562  0.09534531  0.15853832     0.20120
C694        C  0.80920980  0.12415139  0.18602631     0.25150
C695        C  0.80243624  0.18059469  0.17666881    -0.22840
C696        C  0.82236816  0.20386283  0.13250908     0.20050
F697        F  0.81098249  0.25304030  0.11297985    -0.12800
F698        F  0.87278893  0.19972119  0.06468565    -0.15160
F699        F  0.78794918  0.09679068  0.22331244    -0.15160
F700        F  0.84710063  0.04217223  0.17094225    -0.12800
C701        C  0.66423321  0.16080495  0.09823108     0.25210
C702        C  0.64598169  0.11587020  0.12249907    -0.22880
C703        C  0.66382055  0.09479043  0.16902180     0.20120
C704        C  0.69549331  0.12366920  0.19489082     0.25150
C705        C  0.70715739  0.17627760  0.17663814    -0.22840
C706        C  0.69639647  0.18832602  0.12372368     0.20050
F707        F  0.72203384  0.21641913  0.09275182    -0.12800
F708        F  0.65217136  0.17645528  0.04871059    -0.15160
F709        F  0.71177400  0.10195298  0.23989898    -0.15160
F710        F  0.64989005  0.04736599  0.19013659    -0.12800
C711        C  0.83874733  0.39385628  0.34281683     0.25210
C712        C  0.86333419  0.36823135  0.38151418    -0.22900
C713        C  0.85640222  0.31331628  0.39368262     0.20120
C714        C  0.82684225  0.28329956  0.36550871     0.25150
C715        C  0.80533036  0.30663575  0.32194587    -0.22840
C716        C  0.80942635  0.36360963  0.31403806     0.20050
F717        F  0.78472779  0.39029068  0.27893593    -0.12800
F718        F  0.84377016  0.44784139  0.33211299    -0.15160
F719        F  0.81645313  0.23409003  0.38541334    -0.15160
F720        F  0.87739194  0.28918301  0.43432546    -0.12800
C721        C  0.84734833  0.17015527  0.29580234     0.25210
C722        C  0.80491341  0.16728557  0.30517831    -0.22900
C723        C  0.79205412  0.12587415  0.34046153     0.20120
C724        C  0.82045130  0.09982131  0.37466305     0.25150
C725        C  0.86278287  0.11084425  0.37074894    -0.22840
C726        C  0.87568287  0.14407605  0.32847552     0.20050
F727        F  0.91603490  0.15045969  0.31666465    -0.12800
F728        F  0.86206619  0.19257107  0.25124477    -0.15160
F729        F  0.80645919  0.06275378  0.41020640    -0.15160
F730        F  0.75349920  0.10577740  0.33827401    -0.12800
C731        C  0.68092628  0.36371535  0.39397285     0.25210
C732        C  0.63990073  0.36708589  0.37623570    -0.22900
C733        C  0.62826357  0.33707790  0.33074119     0.20120
C734        C  0.65698638  0.30665089  0.30272933     0.25150
C735        C  0.69887924  0.30561307  0.31796424    -0.22840
C736        C  0.70972145  0.33232785  0.36613818     0.20050
F737        F  0.74699973  0.32623344  0.38917609    -0.12800
F738        F  0.69321949  0.38958618  0.43924986    -0.15160
F739        F  0.64404419  0.28325203  0.25682716    -0.15160
F740        F  0.58918849  0.33891640  0.31119883    -0.12800
C741        C  0.80089363  0.36467986  0.16520241     0.25210
C742        C  0.81150082  0.31904062  0.19716640    -0.22900
C743        C  0.85389919  0.31032664  0.20508628     0.20120
C744        C  0.88292065  0.33407250  0.17198132     0.25150
C745        C  0.87090471  0.37247527  0.13311968    -0.22840
C746        C  0.82957940  0.38910760  0.13187749     0.20050
F747        F  0.81696410  0.43143317  0.10081012    -0.12800
F748        F  0.76528458  0.39197168  0.17120664    -0.15160
F749        F  0.92305139  0.32086768  0.18018312    -0.15160
F750        F  0.86819830  0.28620518  0.24957919    -0.12800
O751        O  0.93332650  0.38554669  0.89787170    -0.73680
O752        O  0.88551463  0.43457794  0.94381722    -0.52590
C753        C  0.89610391  0.39827588  0.90952153     0.80050
O754        O  0.57760752  0.39690712  0.60882935    -0.58280
O755        O  0.62385838  0.43881403  0.55479023    -0.51310
C756        C  0.61439318  0.40754076  0.59373841     0.72070
O757        O  0.93992765  0.38859394  0.60909825    -0.72840
O758        O  0.88957984  0.43371201  0.56353757    -0.53400
C759        C  0.90199722  0.39975013  0.59936915     0.78070
O760        O  0.57088684  0.38722971  0.89609533    -0.57980
O761        O  0.62057291  0.43698650  0.93822481    -0.51100
C762        C  0.60866657  0.39943433  0.90547528     0.74660
Zr763      Zr  0.50263274  0.41533298  0.92207810     2.54710
O764        O  0.50339863  0.31576771  0.92157225    -0.78550
O765        O  0.50167054  0.42036241  0.82534003    -0.91960
Zr766      Zr  0.50736361  0.41568720  0.57911395     2.64680
O767        O  0.01007644  0.31628388  0.57290696    -0.96920
O768        O  0.50874972  0.41319047  0.67590149    -0.78980
O769        O  0.96468807  0.41285899  0.50188481    -0.82340
O770        O  0.54503515  0.41474540  0.99930178    -2.17050
O771        O  0.56893406  0.10787065  0.89674111    -0.65730
O772        O  0.61991553  0.06232565  0.94104606    -0.50290
C773        C  0.60701952  0.09801455  0.90705484     0.73040
O774        O  0.93409156  0.10647518  0.60371412    -0.58630
O775        O  0.88600579  0.05403498  0.56044838    -0.50610
C776        C  0.89665384  0.09218399  0.59296480     0.74850
O777        O  0.57507434  0.09974681  0.60896859    -0.70030
O778        O  0.62216749  0.05456038  0.55798882    -0.48710
C779        C  0.61212872  0.08771813  0.59523797     0.76230
O780        O  0.93164937  0.09865216  0.89750221    -0.65360
O781        O  0.88342021  0.05027948  0.94171267    -0.52560
C782        C  0.89425836  0.08497826  0.90609375     0.74610
Zr783      Zr  0.00139549  0.07756182  0.92402940     2.77540
O784        O  0.99699037  0.17692562  0.92883208    -0.96110
O785        O  0.00052419  0.07931268  0.82725659    -0.76930
Zr786      Zr  0.00440447  0.07737760  0.58088502     2.70070
O787        O  0.50737617  0.17687303  0.58084486    -0.78180
O788        O  0.00214030  0.07244439  0.67750691    -0.97260
Zr789      Zr  0.92447943  0.49444660  0.50256313     2.21500
Zr790      Zr  0.58330788  0.99784010  0.99762411     2.11130
O791        O  0.54305087  0.07951518  0.00142506    -2.45950
O792        O  0.96250270  0.07789644  0.50300204    -0.77970
O793        O  0.54197613  0.99713694  0.91908666    -0.70170
O794        O  0.96579839  0.49546068  0.58178000    -2.31120
O795        O  0.96247875  0.49575389  0.92228141    -2.27330
O796        O  0.54593496  0.99751192  0.57876974    -0.71920
H797        H  0.56302270  0.38328587  0.99910558     0.80070
H798        H  0.94889370  0.49526016  0.61308392     0.81160
H799        H  0.56030034  0.11163954  0.00156903     0.83390
H800        H  0.94450879  0.49523688  0.89146640     0.80990
H801        H  0.99231133  0.44528478  0.68696859     0.44030
H802        H  0.52484031  0.04732439  0.68746910     0.43000
H803        H  0.98916324  0.18796832  0.55094871     0.42680
H804        H  0.52149508  0.18826960  0.94977188     0.40610
H805        H  0.51509478  0.04548156  0.81666485     0.43740
H806        H  0.97614319  0.44048578  0.81615928     0.38530
H807        H  0.99271560  0.30534861  0.95681437     0.44640
H808        H  0.53752710  0.30792798  0.55836959     0.41060
H809        H  0.00261278  0.18940171  0.89221315     0.45980
H810        H  0.49634780  0.38235929  0.81344605     0.44700
H811        H  0.51166021  0.30380377  0.61029514     0.44840
H812        H  0.01152890  0.10888826  0.68983780     0.45190
C813        C  0.72759066  0.21289296  0.77573070    -0.00870
C814        C  0.72992505  0.27638858  0.78131469    -0.00870
C815        C  0.73161217  0.28249289  0.71907705    -0.00870
C816        C  0.72954781  0.21785669  0.71347294    -0.00870
C817        C  0.77576444  0.20875534  0.77768165    -0.00870
C818        C  0.77724857  0.21591684  0.71581465    -0.00870
C819        C  0.77957829  0.28001073  0.72278583    -0.00870
C820        C  0.77773534  0.27272178  0.78455862    -0.00870
C821        C  0.62795347  0.14158995  0.82241480     0.25210
C822        C  0.63721143  0.12948216  0.87567699    -0.22900
C823        C  0.67353369  0.15093118  0.89819789     0.20120
C824        C  0.70099506  0.18098222  0.86678814     0.25150
C825        C  0.69469982  0.18575951  0.81123862    -0.22840
C826        C  0.65538660  0.17076039  0.79139660     0.20050
F827        F  0.64173131  0.18582156  0.74261500    -0.12800
F828        F  0.59206947  0.12473184  0.79962464    -0.15160
F829        F  0.73466583  0.20342292  0.89037956    -0.15160
F830        F  0.68210817  0.14377130  0.95061842    -0.12800
C831        C  0.67720622  0.34903347  0.59874592     0.25210
C832        C  0.64804876  0.38193815  0.62396202    -0.22900
C833        C  0.65328652  0.39364540  0.67806875     0.20120
C834        C  0.68440557  0.36764129  0.70724765     0.25150
C835        C  0.70636904  0.32335052  0.68502879    -0.22840
C836        C  0.70735969  0.32215652  0.62904564     0.20050
F837        F  0.74176534  0.30579695  0.60405429    -0.12800
F838        F  0.67714300  0.34400678  0.54499089    -0.15160
F839        F  0.69634462  0.39076585  0.75386927    -0.15160
F840        F  0.62982679  0.43238147  0.70185744    -0.12800
C841        C  0.85321470  0.17528382  0.60564907     0.25210
C842        C  0.86323146  0.12161914  0.62003005    -0.22900
C843        C  0.83964668  0.09534459  0.65854105     0.20120
C844        C  0.80921047  0.12415096  0.68602836     0.25150
C845        C  0.80243767  0.18059439  0.67667115    -0.22840
C846        C  0.82237080  0.20386265  0.63251237     0.20050
F847        F  0.81098511  0.25303964  0.61298197    -0.12800
F848        F  0.87279328  0.19972133  0.56469116    -0.15160
F849        F  0.78794804  0.09679040  0.72331299    -0.15160
F850        F  0.84710064  0.04217109  0.67094424    -0.12800
C851        C  0.66424204  0.16079665  0.59822796     0.25210
C852        C  0.64598443  0.11586766  0.62249874    -0.22880
C853        C  0.66381823  0.09479061  0.66902584     0.20120
C854        C  0.69549148  0.12366778  0.69489544     0.25150
C855        C  0.70715918  0.17627364  0.67664021    -0.22840
C856        C  0.69640517  0.18831656  0.62372243     0.20050
F857        F  0.72204900  0.21640134  0.59275194    -0.12800
F858        F  0.65218568  0.17644281  0.54870418    -0.15160
F859        F  0.71177034  0.10195207  0.73990496    -0.15160
F860        F  0.64988304  0.04737001  0.69014343    -0.12800
C861        C  0.83874678  0.39385737  0.84281585     0.25210
C862        C  0.86333357  0.36823234  0.88151328    -0.22900
C863        C  0.85640097  0.31331767  0.89368260     0.20120
C864        C  0.82684062  0.28330122  0.86550923     0.25150
C865        C  0.80532899  0.30663723  0.82194611    -0.22840
C866        C  0.80942545  0.36361091  0.81403747     0.20050
F867        F  0.78472771  0.39029163  0.77893406    -0.12800
F868        F  0.84377011  0.44784227  0.83211145    -0.15160
F869        F  0.81645106  0.23409210  0.88541445    -0.15160
F870        F  0.87739048  0.28918457  0.93432570    -0.12800
C871        C  0.84734791  0.17015688  0.79580430     0.25210
C872        C  0.80491303  0.16728667  0.80517993    -0.22900
C873        C  0.79205345  0.12587479  0.84046243     0.20120
C874        C  0.82045049  0.09982093  0.87466323     0.25150
C875        C  0.86278205  0.11084367  0.87074916    -0.22840
C876        C  0.87568225  0.14407649  0.82847661     0.20050
F877        F  0.91603431  0.15046048  0.81666599    -0.12800
F878        F  0.86206601  0.19257553  0.75124822    -0.15160
F879        F  0.80645825  0.06275283  0.91020594    -0.15160
F880        F  0.75349823  0.10577908  0.83827531    -0.12800
C881        C  0.68092559  0.36371718  0.89397143     0.25210
C882        C  0.63990035  0.36708937  0.87623350    -0.22900
C883        C  0.62826321  0.33708256  0.83073826     0.20120
C884        C  0.65698563  0.30665414  0.80272711     0.25150
C885        C  0.69887830  0.30561447  0.81796291    -0.22840
C886        C  0.70972042  0.33232867  0.86613722     0.20050
F887        F  0.74699802  0.32623195  0.88917639    -0.12800
F888        F  0.69321869  0.38958699  0.93924902    -0.15160
F889        F  0.64404319  0.28325515  0.75682514    -0.15160
F890        F  0.58918850  0.33892324  0.81119482    -0.12800
C891        C  0.80089233  0.36467676  0.66519792     0.25210
C892        C  0.81150003  0.31904067  0.69716597    -0.22900
C893        C  0.85389858  0.31032996  0.70508897     0.20120
C894        C  0.88292052  0.33407684  0.67198534     0.25150
C895        C  0.87090457  0.37247583  0.63312015    -0.22840
C896        C  0.82957846  0.38910429  0.63187341     0.20050
F897        F  0.81696233  0.43142594  0.60080152    -0.12800
F898        F  0.76528200  0.39196653  0.67119736    -0.15160
F899        F  0.92305161  0.32087686  0.68019190    -0.15160
F900        F  0.86819711  0.28621011  0.74958306    -0.12800
O901        O  0.93332699  0.88554598  0.39787250    -0.73680
O902        O  0.88551525  0.93457763  0.44381791    -0.52590
C903        C  0.89610445  0.89827519  0.40952245     0.80050
O904        O  0.57760779  0.89691071  0.10883078    -0.58280
O905        O  0.62385829  0.93881642  0.05479037    -0.51310
C906        C  0.61439346  0.90754423  0.09373955     0.72070
O907        O  0.93992762  0.88859443  0.10909802    -0.72840
O908        O  0.88957942  0.93371121  0.06353679    -0.53400
C909        C  0.90199710  0.89974979  0.09936859     0.78070
O910        O  0.57088714  0.88722739  0.39609668    -0.57980
O911        O  0.62057344  0.93698401  0.43822584    -0.51100
C912        C  0.60866696  0.89943149  0.40547683     0.74660
Zr913      Zr  0.50263312  0.91533274  0.42207810     2.54710
O914        O  0.50339822  0.81576746  0.42156997    -0.78550
O915        O  0.50167125  0.92036451  0.32534016    -0.91960
Zr916      Zr  0.50736353  0.91568828  0.07911407     2.64680
O917        O  0.01007788  0.81628502  0.07290754    -0.96920
O918        O  0.50874876  0.91319149  0.17590160    -0.78980
O919        O  0.96468789  0.91285899  0.00188492    -0.82340
O920        O  0.54503535  0.91474441  0.49930178    -2.17050
O921        O  0.56893564  0.60786849  0.39674088    -0.65730
O922        O  0.61991696  0.56232257  0.44104520    -0.50290
C923        C  0.60702110  0.59801154  0.40705399     0.73040
O924        O  0.93408942  0.60647658  0.10371120    -0.58630
O925        O  0.88600427  0.55403498  0.06044601    -0.50610
C926        C  0.89665188  0.59218490  0.09296157     0.74850
O927        O  0.57507199  0.59974885  0.10896819    -0.70030
O928        O  0.62216577  0.55456074  0.05799070    -0.48710
C929        C  0.61212649  0.58771932  0.09523892     0.76230
O930        O  0.93165046  0.59865296  0.39750225    -0.65360
O931        O  0.88342121  0.55028063  0.44171306    -0.52560
C932        C  0.89425937  0.58497922  0.40609388     0.74610
Zr933      Zr  0.00139660  0.57756143  0.42402978     2.77540
O934        O  0.99699290  0.67692541  0.42883084    -0.96110
O935        O  0.00052507  0.57931036  0.32725693    -0.76930
Zr936      Zr  0.00440263  0.57737888  0.08088406     2.70070
O937        O  0.50737401  0.67687434  0.08084088    -0.78180
O938        O  0.00213724  0.57244894  0.17750604    -0.97260
Zr939      Zr  0.92447880  0.99444618  0.00256260     2.21500
Zr940      Zr  0.58330869  0.49783866  0.49762418     2.11130
O941        O  0.54305213  0.57951410  0.50142547    -2.45950
O942        O  0.96250114  0.57789662  0.00300110    -0.77970
O943        O  0.54197695  0.49713626  0.41908676    -0.70170
O944        O  0.96579748  0.99546119  0.08177968    -2.31120
O945        O  0.96247934  0.99575395  0.42228189    -2.27330
O946        O  0.54593381  0.49751374  0.07876938    -0.71920
H947        H  0.56302262  0.88328460  0.49910557     0.80070
H948        H  0.94889268  0.99526067  0.11308350     0.81160
H949        H  0.56030181  0.61163827  0.50156935     0.83390
H950        H  0.94450931  0.99523714  0.39146696     0.80990
H951        H  0.99231328  0.94528856  0.18696846     0.44030
H952        H  0.52483776  0.54733035  0.18746958     0.43000
H953        H  0.98915645  0.68796890  0.05094918     0.42680
H954        H  0.52149774  0.68826911  0.44977051     0.40610
H955        H  0.51509999  0.54548235  0.31666580     0.43740
H956        H  0.97614341  0.94048689  0.31615968     0.38530
H957        H  0.99271731  0.80534771  0.45681302     0.44640
H958        H  0.53752911  0.80792973  0.05837157     0.41060
H959        H  0.00261555  0.68940071  0.39221172     0.45980
H960        H  0.49634954  0.88236143  0.31344530     0.44700
H961        H  0.51166070  0.80380506  0.11029580     0.44840
H962        H  0.01152472  0.60889368  0.18983590     0.45190
C963        C  0.72759072  0.71289310  0.27572942    -0.00870
C964        C  0.72992586  0.77638856  0.28131511    -0.00870
C965        C  0.73161265  0.78249487  0.21907758    -0.00870
C966        C  0.72954731  0.71785882  0.21347170    -0.00870
C967        C  0.77576454  0.70875443  0.27768001    -0.00870
C968        C  0.77724813  0.71591731  0.21581314    -0.00870
C969        C  0.77957877  0.78001108  0.22278582    -0.00870
C970        C  0.77773617  0.77272073  0.28455844    -0.00870
C971        C  0.62795494  0.64158577  0.32241335     0.25210
C972        C  0.63721314  0.62947839  0.37567553    -0.22900
C973        C  0.67353548  0.65092765  0.39819599     0.20120
C974        C  0.70099601  0.68098012  0.36678634     0.25150
C975        C  0.69470040  0.68575789  0.31123695    -0.22840
C976        C  0.65538753  0.67075697  0.29139497     0.20050
F977        F  0.64173142  0.68581839  0.24261384    -0.12800
F978        F  0.59207103  0.62472688  0.29962351    -0.15160
F979        F  0.73466654  0.70342159  0.39037771    -0.15160
F980        F  0.68211102  0.64376635  0.45061597    -0.12800
C981        C  0.67720998  0.84904289  0.09874729     0.25210
C982        C  0.64804949  0.88194260  0.12396371    -0.22900
C983        C  0.65328461  0.89364598  0.17807167     0.20120
C984        C  0.68440402  0.86764245  0.20725066     0.25150
C985        C  0.70637021  0.82335484  0.18503037    -0.22840
C986        C  0.70736336  0.82216581  0.12904718     0.20050
F987        F  0.74176976  0.80580731  0.10405652    -0.12800
F988        F  0.67714919  0.84402012  0.04499198    -0.15160
F989        F  0.69634120  0.89076588  0.25387354    -0.15160
F990        F  0.62982223  0.93237836  0.20186163    -0.12800
C991        C  0.85321153  0.67528401  0.10564466     0.25210
C992        C  0.86322922  0.62161977  0.12002621    -0.22900
C993        C  0.83964562  0.59534531  0.15853829     0.20120
C994        C  0.80920980  0.62415140  0.18602629     0.25150
C995        C  0.80243625  0.68059469  0.17666880    -0.22840
C996        C  0.82236817  0.70386285  0.13250907     0.20050
F997        F  0.81098250  0.75304032  0.11297984    -0.12800
F998        F  0.87278894  0.69972120  0.06468564    -0.15160
F999        F  0.78794919  0.59679069  0.22331242    -0.15160
F1000       F  0.84710063  0.54217224  0.17094222    -0.12800
C1001       C  0.66423321  0.66080496  0.09823107     0.25210
C1002       C  0.64598169  0.61587020  0.12249906    -0.22880
C1003       C  0.66382055  0.59479043  0.16902179     0.20120
C1004       C  0.69549332  0.62366921  0.19489081     0.25150
C1005       C  0.70715739  0.67627760  0.17663812    -0.22840
C1006       C  0.69639646  0.68832603  0.12372367     0.20050
F1007       F  0.72203383  0.71641915  0.09275180    -0.12800
F1008       F  0.65217135  0.67645530  0.04871058    -0.15160
F1009       F  0.71177401  0.60195299  0.23989896    -0.15160
F1010       F  0.64989006  0.54736599  0.19013657    -0.12800
C1011       C  0.83874733  0.89385628  0.34281683     0.25210
C1012       C  0.86333419  0.86823134  0.38151419    -0.22900
C1013       C  0.85640222  0.81331627  0.39368262     0.20120
C1014       C  0.82684224  0.78329956  0.36550871     0.25150
C1015       C  0.80533035  0.80663575  0.32194587    -0.22840
C1016       C  0.80942634  0.86360963  0.31403807     0.20050
F1017       F  0.78472779  0.89029068  0.27893593    -0.12800
F1018       F  0.84377015  0.94784138  0.33211300    -0.15160
F1019       F  0.81645313  0.73409002  0.38541333    -0.15160
F1020       F  0.87739193  0.78918300  0.43432546    -0.12800
C1021       C  0.84734834  0.67015527  0.29580233     0.25210
C1022       C  0.80491341  0.66728557  0.30517829    -0.22900
C1023       C  0.79205413  0.62587415  0.34046151     0.20120
C1024       C  0.82045130  0.59982131  0.37466303     0.25150
C1025       C  0.86278287  0.61084426  0.37074893    -0.22840
C1026       C  0.87568287  0.64407607  0.32847552     0.20050
F1027       F  0.91603490  0.65045971  0.31666465    -0.12800
F1028       F  0.86206620  0.69257108  0.25124476    -0.15160
F1029       F  0.80645919  0.56275377  0.41020638    -0.15160
F1030       F  0.75349921  0.60577739  0.33827399    -0.12800
C1031       C  0.68092628  0.86371533  0.39397285     0.25210
C1032       C  0.63990073  0.86708588  0.37623569    -0.22900
C1033       C  0.62826356  0.83707789  0.33074118     0.20120
C1034       C  0.65698638  0.80665089  0.30272932     0.25150
C1035       C  0.69887923  0.80561306  0.31796424    -0.22840
C1036       C  0.70972144  0.83232784  0.36613818     0.20050
F1037       F  0.74699972  0.82623343  0.38917609    -0.12800
F1038       F  0.69321947  0.88958616  0.43924986    -0.15160
F1039       F  0.64404419  0.78325203  0.25682715    -0.15160
F1040       F  0.58918849  0.83891640  0.31119882    -0.12800
C1041       C  0.80089363  0.86467987  0.16520241     0.25210
C1042       C  0.81150082  0.81904063  0.19716640    -0.22900
C1043       C  0.85389919  0.81032665  0.20508628     0.20120
C1044       C  0.88292064  0.83407250  0.17198131     0.25150
C1045       C  0.87090470  0.87247527  0.13311967    -0.22840
C1046       C  0.82957940  0.88910761  0.13187749     0.20050
F1047       F  0.81696409  0.93143318  0.10081012    -0.12800
F1048       F  0.76528458  0.89197169  0.17120665    -0.15160
F1049       F  0.92305138  0.82086768  0.18018311    -0.15160
F1050       F  0.86819830  0.78620519  0.24957919    -0.12800
O1051       O  0.93332648  0.88554672  0.89787169    -0.73680
O1052       O  0.88551462  0.93457796  0.94381721    -0.52590
C1053       C  0.89610390  0.89827591  0.90952152     0.80050
O1054       O  0.57760751  0.89690710  0.60882934    -0.58280
O1055       O  0.62385837  0.93881400  0.55479023    -0.51310
C1056       C  0.61439318  0.90754073  0.59373840     0.72070
O1057       O  0.93992765  0.88859395  0.60909827    -0.72840
O1058       O  0.88957984  0.93371201  0.56353759    -0.53400
C1059       C  0.90199722  0.89975014  0.59936917     0.78070
O1060       O  0.57088683  0.88722972  0.89609533    -0.57980
O1061       O  0.62057291  0.93698651  0.93822481    -0.51100
C1062       C  0.60866657  0.89943434  0.90547528     0.74660
Zr1063     Zr  0.50263273  0.91533299  0.92207810     2.54710
O1064       O  0.50339863  0.81576772  0.92157222    -0.78550
O1065       O  0.50167054  0.92036244  0.82534002    -0.91960
Zr1066     Zr  0.50736361  0.91568718  0.57911395     2.64680
O1067       O  0.01007644  0.81628389  0.57290700    -0.96920
O1068       O  0.50874972  0.91319045  0.67590149    -0.78980
O1069       O  0.96468806  0.91285898  0.50188482    -0.82340
O1070       O  0.54503515  0.91474541  0.99930177    -2.17050
O1071       O  0.56893406  0.60787064  0.89674112    -0.65730
O1072       O  0.61991553  0.56232564  0.94104607    -0.50290
C1073       C  0.60701952  0.59801454  0.90705484     0.73040
O1074       O  0.93409157  0.60647518  0.60371414    -0.58630
O1075       O  0.88600579  0.55403498  0.56044839    -0.50610
C1076       C  0.89665385  0.59218399  0.59296481     0.74850
O1077       O  0.57507435  0.59974682  0.60896859    -0.70030
O1078       O  0.62216749  0.55456041  0.55798880    -0.48710
C1079       C  0.61212873  0.58771816  0.59523795     0.76230
O1080       O  0.93164937  0.59865213  0.89750218    -0.65360
O1081       O  0.88342021  0.55027946  0.94171266    -0.52560
C1082       C  0.89425836  0.58497823  0.90609373     0.74610
Zr1083     Zr  0.00139549  0.57756179  0.92402937     2.77540
O1084       O  0.99699037  0.67692559  0.92883202    -0.96110
O1085       O  0.00052420  0.57931262  0.82725657    -0.76930
Zr1086     Zr  0.00440448  0.57737759  0.58088503     2.70070
O1087       O  0.50737617  0.67687304  0.58084484    -0.78180
O1088       O  0.00214030  0.57244436  0.67750692    -0.97260
Zr1089     Zr  0.92447943  0.99444660  0.50256313     2.21500
Zr1090     Zr  0.58330788  0.49784010  0.99762411     2.11130
O1091       O  0.54305087  0.57951517  0.00142505    -2.45950
O1092       O  0.96250271  0.57789645  0.50300205    -0.77970
O1093       O  0.54197614  0.49713692  0.91908666    -0.70170
O1094       O  0.96579839  0.99546069  0.58178000    -2.31120
O1095       O  0.96247874  0.99575392  0.92228141    -2.27330
O1096       O  0.54593497  0.49751193  0.57876973    -0.71920
H1097       H  0.56302270  0.88328588  0.99910557     0.80070
H1098       H  0.94889370  0.99526017  0.61308392     0.81160
H1099       H  0.56030034  0.61163954  0.00156901     0.83390
H1100       H  0.94450879  0.99523691  0.89146640     0.80990
H1101       H  0.99231132  0.94528480  0.68696860     0.44030
H1102       H  0.52484031  0.54732441  0.68746909     0.43000
H1103       H  0.98916324  0.68796832  0.55094874     0.42680
H1104       H  0.52149507  0.68826960  0.94977185     0.40610
H1105       H  0.51509481  0.54548153  0.81666485     0.43740
H1106       H  0.97614318  0.94048583  0.81615927     0.38530
H1107       H  0.99271558  0.80534862  0.95681431     0.44640
H1108       H  0.53752708  0.80792796  0.55836957     0.41060
H1109       H  0.00261279  0.68940167  0.89221309     0.45980
H1110       H  0.49634780  0.88235933  0.81344604     0.44700
H1111       H  0.51166020  0.80380375  0.61029512     0.44840
H1112       H  0.01152890  0.60888823  0.68983782     0.45190
C1113       C  0.72759067  0.71289295  0.77573071    -0.00870
C1114       C  0.72992505  0.77638858  0.78131469    -0.00870
C1115       C  0.73161216  0.78249288  0.71907706    -0.00870
C1116       C  0.72954782  0.71785668  0.71347295    -0.00870
C1117       C  0.77576445  0.70875535  0.77768166    -0.00870
C1118       C  0.77724858  0.71591684  0.71581466    -0.00870
C1119       C  0.77957829  0.78001073  0.72278584    -0.00870
C1120       C  0.77773534  0.77272179  0.78455863    -0.00870
C1121       C  0.62795347  0.64158996  0.82241481     0.25210
C1122       C  0.63721144  0.62948216  0.87567700    -0.22900
C1123       C  0.67353370  0.65093117  0.89819790     0.20120
C1124       C  0.70099507  0.68098220  0.86678815     0.25150
C1125       C  0.69469983  0.68575951  0.81123864    -0.22840
C1126       C  0.65538660  0.67076040  0.79139662     0.20050
F1127       F  0.64173131  0.68582158  0.74261502    -0.12800
F1128       F  0.59206946  0.62473187  0.79962466    -0.15160
F1129       F  0.73466585  0.70342289  0.89037957    -0.15160
F1130       F  0.68210818  0.64377127  0.95061843    -0.12800
C1131       C  0.67720620  0.84903342  0.59874592     0.25210
C1132       C  0.64804875  0.88193812  0.62396202    -0.22900
C1133       C  0.65328653  0.89364539  0.67806873     0.20120
C1134       C  0.68440557  0.86764128  0.70724764     0.25150
C1135       C  0.70636903  0.82335049  0.68502879    -0.22840
C1136       C  0.70735967  0.82215647  0.62904564     0.20050
F1137       F  0.74176531  0.80579689  0.60405429    -0.12800
F1138       F  0.67714297  0.84400670  0.54499089    -0.15160
F1139       F  0.69634462  0.89076584  0.75386926    -0.15160
F1140       F  0.62982681  0.93238148  0.70185742    -0.12800
C1141       C  0.85321472  0.67528383  0.60564909     0.25210
C1142       C  0.86323146  0.62161914  0.62003006    -0.22900
C1143       C  0.83964667  0.59534459  0.65854105     0.20120
C1144       C  0.80921047  0.62415096  0.68602837     0.25150
C1145       C  0.80243768  0.68059440  0.67667116    -0.22840
C1146       C  0.82237083  0.70386267  0.63251239     0.20050
F1147       F  0.81098514  0.75303965  0.61298200    -0.12800
F1148       F  0.87279331  0.69972134  0.56469119    -0.15160
F1149       F  0.78794803  0.59679040  0.72331298    -0.15160
F1150       F  0.84710062  0.54217109  0.67094423    -0.12800
C1151       C  0.66424209  0.66079663  0.59822794     0.25210
C1152       C  0.64598444  0.61586767  0.62249873    -0.22880
C1153       C  0.66381821  0.59479063  0.66902585     0.20120
C1154       C  0.69549146  0.62366778  0.69489546     0.25150
C1155       C  0.70715919  0.67627362  0.67664022    -0.22840
C1156       C  0.69640523  0.68831652  0.62372243     0.20050
F1157       F  0.72204911  0.71640123  0.59275194    -0.12800
F1158       F  0.65218576  0.67644276  0.54870414    -0.15160
F1159       F  0.71177031  0.60195206  0.73990499    -0.15160
F1160       F  0.64988298  0.54737005  0.69014345    -0.12800
C1161       C  0.83874675  0.89385740  0.84281586     0.25210
C1162       C  0.86333356  0.86823237  0.88151328    -0.22900
C1163       C  0.85640097  0.81331770  0.89368259     0.20120
C1164       C  0.82684062  0.78330124  0.86550923     0.25150
C1165       C  0.80532898  0.80663725  0.82194612    -0.22840
C1166       C  0.80942543  0.86361092  0.81403748     0.20050
F1167       F  0.78472768  0.89029164  0.77893407    -0.12800
F1168       F  0.84377007  0.94784230  0.83211147    -0.15160
F1169       F  0.81645107  0.73409211  0.88541444    -0.15160
F1170       F  0.87739050  0.78918459  0.93432568    -0.12800
C1171       C  0.84734792  0.67015688  0.79580430     0.25210
C1172       C  0.80491304  0.66728667  0.80517993    -0.22900
C1173       C  0.79205346  0.62587478  0.84046242     0.20120
C1174       C  0.82045050  0.59982091  0.87466321     0.25150
C1175       C  0.86278206  0.61084365  0.87074914    -0.22840
C1176       C  0.87568226  0.64407648  0.82847660     0.20050
F1177       F  0.91603431  0.65046047  0.81666598    -0.12800
F1178       F  0.86206602  0.69257556  0.75124823    -0.15160
F1179       F  0.80645826  0.56275279  0.91020591    -0.15160
F1180       F  0.75349823  0.60577907  0.83827529    -0.12800
C1181       C  0.68092558  0.86371716  0.89397144     0.25210
C1182       C  0.63990035  0.86708938  0.87623350    -0.22900
C1183       C  0.62826321  0.83708258  0.83073825     0.20120
C1184       C  0.65698562  0.80665415  0.80272710     0.25150
C1185       C  0.69887829  0.80561446  0.81796291    -0.22840
C1186       C  0.70972041  0.83232865  0.86613723     0.20050
F1187       F  0.74699801  0.82623189  0.88917642    -0.12800
F1188       F  0.69321868  0.88958696  0.93924904    -0.15160
F1189       F  0.64404318  0.78325516  0.75682513    -0.15160
F1190       F  0.58918850  0.83892328  0.81119480    -0.12800
C1191       C  0.80089232  0.86467675  0.66519791     0.25210
C1192       C  0.81150002  0.81904068  0.69716598    -0.22900
C1193       C  0.85389858  0.81032999  0.70508901     0.20120
C1194       C  0.88292052  0.83407688  0.67198539     0.25150
C1195       C  0.87090457  0.87247584  0.63312018    -0.22840
C1196       C  0.82957845  0.88910428  0.63187340     0.20050
F1197       F  0.81696232  0.93142590  0.60080149    -0.12800
F1198       F  0.76528198  0.89196650  0.67119732    -0.15160
F1199       F  0.92305161  0.82087693  0.68019199    -0.15160
F1200       F  0.86819709  0.78621015  0.74958311    -0.12800
loop_ 
_geom_bond_atom_site_label_1 
_geom_bond_atom_site_label_2 
_geom_bond_distance 
_geom_bond_site_symmetry_2 
_ccdc_geom_bond_type 
O1            C3   1.287       .  A
O1         Zr613   2.441       .  S
O2            C3   1.286       .  A
O2         Zr189   2.426       .  S
C3          C112   1.468       .  S
O4            C6   1.287       .  A
O4          Zr16   2.440       .  S
O5            C6   1.285       .  A
O5         Zr490   2.419   1_554  S
C6           C82   1.466       .  S
O7            C9   1.285       .  A
O7         Zr616   2.423       .  S
O8            C9   1.288       .  A
O8          Zr39   2.430       .  S
C9          C145   1.488       .  S
O10          C12   1.285       .  A
O10         Zr13   2.421       .  S
O11          C12   1.289       .  A
O11        Zr340   2.438       .  S
C12         C132   1.487       .  S
Zr13        O601   2.441   1_455  S
Zr13         O14   2.434       .  S
Zr13         O15   2.437       .  S
Zr13         O20   2.370       .  S
Zr13        O769   2.370   1_455  S
Zr13        O343   2.378       .  S
Zr13        O645   2.359   1_455  S
O14         H657   0.990   1_455  S
O15          H60   0.990   1_455  S
O15         H656   0.990   1_455  S
Zr16        O607   2.423   1_455  S
Zr16         O18   2.436       .  S
Zr16        O617   2.436       .  S
Zr16        O170   2.365   1_554  S
Zr16        O619   2.376   1_455  S
Zr16        O644   2.373   1_455  S
Zr16        O346   2.363       .  S
O17        Zr616   2.436       .  S
O17         H658   0.990       .  S
O17         H661   0.990       .  S
O18         H651   0.990   1_455  S
O19         Zr39   2.384       .  S
O19        Zr763   2.370   1_554  S
O19        Zr616   2.376       .  S
O20        Zr166   2.365       .  S
O20        Zr340   2.385       .  S
O20          H47   0.966       .  S
O21          C23   1.286       .  A
O21        Zr633   2.428       .  S
O22          C23   1.289       .  A
O22         Zr40   2.447   1_545  S
C23          C72   1.484       .  S
O24          C26   1.293       .  A
O24         Zr36   2.469       .  S
O25          C26   1.284       .  A
O25        Zr339   2.416   1_545  S
C26          C92   1.475       .  S
O27          C29   1.291       .  A
O27        Zr636   2.460       .  S
O28          C29   1.282       .  A
O28        Zr190   2.404   1_544  S
C29         C102   1.463       .  S
O30          C32   1.283       .  A
O30         Zr33   2.413       .  S
O31          C32   1.288       .  A
O31        Zr489   2.439   1_545  S
C32         C125   1.490       .  S
Zr33        O621   2.428       .  S
Zr33         O34   2.436       .  S
Zr33         O35   2.435       .  S
Zr33        O641   2.360       .  S
Zr33        O192   2.368       .  S
Zr33        O345   2.369   1_545  S
Zr33        O643   2.370   1_545  S
O34          H59   0.990       .  S
O34         H654   0.990       .  S
O35         H655   0.990       .  S
Zr36        O627   2.460       .  S
Zr36         O38   2.436       .  S
Zr36        O637   2.434       .  S
Zr36         O42   2.374       .  S
Zr36        O791   2.375       .  S
Zr36        O646   2.374   1_545  S
Zr36        O344   2.366   1_545  S
O37        Zr636   2.434       .  S
O37         H653   0.990   1_455  S
O38          H62   0.990       .  S
O38         H652   0.990       .  S
Zr39        O152   2.426   1_554  S
Zr39        O325   2.416       .  S
Zr39        O481   2.439   1_554  S
Zr39         O44   2.391       .  S
Zr39        O342   2.387       .  S
Zr39        O195   2.381   1_554  S
Zr40        O455   2.419       .  S
Zr40        O311   2.438       .  S
Zr40        O178   2.404   1_565  S
Zr40         O41   2.389   1_565  S
Zr40         O43   2.377       .  S
Zr40        O320   2.385       .  S
Zr40        O196   2.388       .  S
O41        Zr633   2.360       .  S
O41        Zr786   2.375       .  S
O41          H49   0.966       .  S
O42        Zr183   2.368   1_554  S
O42        Zr339   2.387   1_545  S
O43        Zr313   2.378       .  S
O43        Zr633   2.370   1_565  S
O44        Zr616   2.373       .  S
O44        Zr336   2.366       .  S
O44          H48   0.966       .  S
O45        Zr613   2.359       .  S
O45        Zr333   2.369       .  S
O45        Zr189   2.381       .  S
O45          H50   0.966       .  S
O46        Zr316   2.363       .  S
O46        Zr636   2.374   1_565  S
O46        Zr190   2.388   1_554  S
H51         O618   0.990       .  S
H52         O638   0.990       .  S
H53         O637   0.990       .  S
H54         O634   0.990   1_455  S
H55         O635   0.990       .  S
H56         O615   0.990       .  S
H57         O614   0.990       .  S
H58         O617   0.990       .  S
H61         O617   0.990       .  S
C63          C64   1.560       .  S
C63          C66   1.573       .  S
C63          C67   1.571       .  S
C63          C75   1.553       .  S
C64          C65   1.575       .  S
C64          C70   1.559       .  S
C64         C135   1.548       .  S
C65          C66   1.587       .  S
C65          C69   1.564       .  S
C65          C85   1.546       .  S
C66          C68   1.553       .  S
C66         C105   1.551       .  S
C67          C68   1.568       .  S
C67          C70   1.574       .  S
C67         C122   1.546       .  S
C68          C69   1.578       .  S
C68          C95   1.549       .  S
C69          C70   1.566       .  S
C69         C142   1.558       .  S
C70         C115   1.535       .  S
C71          C72   1.402       .  A
C71          C76   1.391       .  A
C71          F78   1.359       .  S
C72          C73   1.406       .  A
C73          C74   1.409       .  A
C73          F80   1.356       .  S
C74          C75   1.415       .  A
C74          F79   1.356       .  S
C75          C76   1.416       .  A
C76          F77   1.352       .  S
C81          C82   1.400       .  A
C81          C86   1.399       .  A
C81          F88   1.357       .  S
C82          C83   1.399       .  A
C83          C84   1.397       .  A
C83          F90   1.358       .  S
C84          C85   1.414       .  A
C84          F89   1.354       .  S
C85          C86   1.409       .  A
C86          F87   1.350       .  S
C91          C92   1.399       .  A
C91          C96   1.401       .  A
C91          F98   1.358       .  S
C92          C93   1.401       .  A
C93          C94   1.402       .  A
C93         F100   1.358       .  S
C94          C95   1.417       .  A
C94          F99   1.351       .  S
C95          C96   1.414       .  A
C96          F97   1.349       .  S
C101        C102   1.395       .  A
C101        C106   1.394       .  A
C101        F108   1.357       .  S
C102        C103   1.399       .  A
C103        C104   1.403       .  A
C103        F110   1.357       .  S
C104        C105   1.420       .  A
C104        F109   1.354       .  S
C105        C106   1.404       .  A
C106        F107   1.340       .  S
C111        C112   1.401       .  A
C111        C116   1.402       .  A
C111        F118   1.358       .  S
C112        C113   1.397       .  A
C113        C114   1.396       .  A
C113        F120   1.358       .  S
C114        C115   1.414       .  A
C114        F119   1.349       .  S
C115        C116   1.414       .  A
C116        F117   1.355       .  S
C121        C122   1.405       .  A
C121        C126   1.384       .  A
C121        F128   1.343       .  S
C122        C123   1.415       .  A
C123        C124   1.408       .  A
C123        F130   1.349       .  S
C124        C125   1.409       .  A
C124        F129   1.357       .  S
C125        C126   1.408       .  A
C126        F127   1.359       .  S
C131        C132   1.405       .  A
C131        C136   1.403       .  A
C131        F138   1.358       .  S
C132        C133   1.406       .  A
C133        C134   1.391       .  A
C133        F140   1.359       .  S
C134        C135   1.412       .  A
C134        F139   1.350       .  S
C135        C136   1.416       .  A
C136        F137   1.346       .  S
C141        C142   1.417       .  A
C141        C146   1.398       .  A
C141        F148   1.346       .  S
C142        C143   1.408       .  A
C143        C144   1.395       .  A
C143        F150   1.344       .  S
C144        C145   1.409       .  A
C144        F149   1.358       .  S
C145        C146   1.404       .  A
C146        F147   1.358       .  S
O151        C153   1.287       .  A
O151       Zr763   2.441       .  S
O152        C153   1.286       .  A
C153        C262   1.468       .  S
O154        C156   1.287       .  A
O154       Zr166   2.440       .  S
O155        C156   1.285       .  A
O155       Zr340   2.419       .  S
C156        C232   1.466       .  S
O157        C159   1.285       .  A
O157       Zr766   2.423       .  S
O158        C159   1.288       .  A
O158       Zr189   2.430       .  S
C159        C295   1.488       .  S
O160        C162   1.285       .  A
O160       Zr163   2.421       .  S
O161        C162   1.289       .  A
O161       Zr490   2.438       .  S
C162        C282   1.487       .  S
Zr163       O751   2.441   1_455  S
Zr163       O164   2.434       .  S
Zr163       O165   2.437       .  S
Zr163       O619   2.370   1_456  S
Zr163       O170   2.370       .  S
Zr163       O493   2.378       .  S
Zr163       O795   2.359   1_455  S
O164        H807   0.990   1_455  S
O165        H806   0.990   1_455  S
O165        H210   0.990   1_455  S
Zr166       O757   2.423   1_455  S
Zr166       O767   2.436       .  S
Zr166       O168   2.436       .  S
Zr166       O769   2.376   1_455  S
Zr166       O794   2.373   1_455  S
Zr166       O496   2.363       .  S
O167       Zr766   2.436       .  S
O167        H808   0.990       .  S
O167        H811   0.990       .  S
O168        H801   0.990   1_455  S
O169       Zr613   2.370       .  S
O169       Zr766   2.376       .  S
O169       Zr189   2.384       .  S
O170       Zr490   2.385       .  S
O170        H197   0.966       .  S
O171        C173   1.286       .  A
O171       Zr783   2.428       .  S
O172        C173   1.289       .  A
O172       Zr190   2.447   1_545  S
C173        C222   1.484       .  S
O174        C176   1.293       .  A
O174       Zr186   2.469       .  S
O175        C176   1.284       .  A
O175       Zr489   2.416   1_545  S
C176        C242   1.475       .  S
O177        C179   1.291       .  A
O177       Zr786   2.460       .  S
O178        C179   1.282       .  A
C179        C252   1.463       .  S
O180        C182   1.283       .  A
O180       Zr183   2.413       .  S
O181        C182   1.288       .  A
O181       Zr339   2.439   1_546  S
C182        C275   1.490       .  S
Zr183       O771   2.428       .  S
Zr183       O184   2.436       .  S
Zr183       O185   2.435       .  S
Zr183       O791   2.360   1_556  S
Zr183       O495   2.369   1_545  S
Zr183       O793   2.370   1_545  S
O184        H804   0.990       .  S
O184        H209   0.990       .  S
O185        H805   0.990       .  S
Zr186       O777   2.460       .  S
Zr186       O787   2.434       .  S
Zr186       O188   2.436       .  S
Zr186       O192   2.374       .  S
Zr186       O641   2.375       .  S
Zr186       O796   2.374   1_545  S
Zr186       O494   2.366   1_545  S
O187       Zr786   2.434       .  S
O187        H803   0.990   1_455  S
O188        H802   0.990       .  S
O188        H212   0.990       .  S
Zr189       O475   2.416       .  S
Zr189       O331   2.439       .  S
Zr189       O492   2.387       .  S
Zr189       O194   2.391       .  S
Zr190       O305   2.419   1_556  S
Zr190       O461   2.438       .  S
Zr190       O470   2.385       .  S
Zr190       O191   2.389   1_566  S
Zr190       O193   2.377       .  S
O191       Zr783   2.360   1_554  S
O191       Zr636   2.375       .  S
O191        H199   0.966       .  S
O192       Zr489   2.387   1_545  S
O193       Zr463   2.378       .  S
O193       Zr783   2.370   1_565  S
O194       Zr766   2.373       .  S
O194       Zr486   2.366       .  S
O194        H198   0.966       .  S
O195       Zr763   2.359       .  S
O195       Zr483   2.369       .  S
O195        H200   0.966       .  S
O196       Zr466   2.363       .  S
O196       Zr786   2.374   1_565  S
H201        O768   0.990       .  S
H202        O788   0.990       .  S
H203        O787   0.990       .  S
H204        O784   0.990   1_455  S
H205        O785   0.990       .  S
H206        O765   0.990       .  S
H207        O764   0.990       .  S
H208        O767   0.990       .  S
H211        O767   0.990       .  S
C213        C214   1.560       .  S
C213        C216   1.573       .  S
C213        C217   1.571       .  S
C213        C225   1.553       .  S
C214        C215   1.575       .  S
C214        C220   1.559       .  S
C214        C285   1.548       .  S
C215        C216   1.587       .  S
C215        C219   1.564       .  S
C215        C235   1.546       .  S
C216        C218   1.553       .  S
C216        C255   1.551       .  S
C217        C218   1.568       .  S
C217        C220   1.574       .  S
C217        C272   1.546       .  S
C218        C219   1.578       .  S
C218        C245   1.549       .  S
C219        C220   1.566       .  S
C219        C292   1.558       .  S
C220        C265   1.535       .  S
C221        C222   1.402       .  A
C221        C226   1.391       .  A
C221        F228   1.359       .  S
C222        C223   1.406       .  A
C223        C224   1.409       .  A
C223        F230   1.356       .  S
C224        C225   1.415       .  A
C224        F229   1.356       .  S
C225        C226   1.416       .  A
C226        F227   1.352       .  S
C231        C232   1.400       .  A
C231        C236   1.399       .  A
C231        F238   1.357       .  S
C232        C233   1.399       .  A
C233        C234   1.397       .  A
C233        F240   1.358       .  S
C234        C235   1.414       .  A
C234        F239   1.354       .  S
C235        C236   1.409       .  A
C236        F237   1.350       .  S
C241        C242   1.399       .  A
C241        C246   1.401       .  A
C241        F248   1.358       .  S
C242        C243   1.401       .  A
C243        C244   1.402       .  A
C243        F250   1.358       .  S
C244        C245   1.417       .  A
C244        F249   1.351       .  S
C245        C246   1.414       .  A
C246        F247   1.349       .  S
C251        C252   1.395       .  A
C251        C256   1.394       .  A
C251        F258   1.357       .  S
C252        C253   1.399       .  A
C253        C254   1.403       .  A
C253        F260   1.357       .  S
C254        C255   1.420       .  A
C254        F259   1.354       .  S
C255        C256   1.404       .  A
C256        F257   1.340       .  S
C261        C262   1.401       .  A
C261        C266   1.402       .  A
C261        F268   1.358       .  S
C262        C263   1.397       .  A
C263        C264   1.396       .  A
C263        F270   1.358       .  S
C264        C265   1.414       .  A
C264        F269   1.349       .  S
C265        C266   1.414       .  A
C266        F267   1.355       .  S
C271        C272   1.405       .  A
C271        C276   1.384       .  A
C271        F278   1.343       .  S
C272        C273   1.415       .  A
C273        C274   1.408       .  A
C273        F280   1.349       .  S
C274        C275   1.409       .  A
C274        F279   1.357       .  S
C275        C276   1.408       .  A
C276        F277   1.359       .  S
C281        C282   1.405       .  A
C281        C286   1.403       .  A
C281        F288   1.358       .  S
C282        C283   1.406       .  A
C283        C284   1.391       .  A
C283        F290   1.359       .  S
C284        C285   1.412       .  A
C284        F289   1.350       .  S
C285        C286   1.416       .  A
C286        F287   1.346       .  S
C291        C292   1.417       .  A
C291        C296   1.398       .  A
C291        F298   1.346       .  S
C292        C293   1.408       .  A
C293        C294   1.395       .  A
C293        F300   1.344       .  S
C294        C295   1.409       .  A
C294        F299   1.358       .  S
C295        C296   1.404       .  A
C296        F297   1.358       .  S
O301        C303   1.287       .  A
O301       Zr913   2.441       .  S
O302        C303   1.286       .  A
O302       Zr489   2.426       .  S
C303        C412   1.468       .  S
O304        C306   1.287       .  A
O304       Zr316   2.440       .  S
O305        C306   1.285       .  A
C306        C382   1.466       .  S
O307        C309   1.285       .  A
O307       Zr916   2.423       .  S
O308        C309   1.288       .  A
O308       Zr339   2.430       .  S
C309        C445   1.488       .  S
O310        C312   1.285       .  A
O310       Zr313   2.421       .  S
O311        C312   1.289       .  A
C312        C432   1.487       .  S
Zr313       O901   2.441   1_455  S
Zr313       O314   2.434       .  S
Zr313       O315   2.437       .  S
Zr313      O1069   2.370   1_455  S
Zr313       O320   2.370       .  S
Zr313       O945   2.359   1_455  S
O314        H957   0.990   1_455  S
O315        H956   0.990   1_455  S
O315        H360   0.990   1_455  S
Zr316       O907   2.423   1_455  S
Zr316       O917   2.436       .  S
Zr316       O318   2.436       .  S
Zr316       O470   2.365   1_554  S
Zr316       O919   2.376   1_455  S
Zr316       O944   2.373   1_455  S
O317       Zr916   2.436       .  S
O317        H958   0.990       .  S
O317        H961   0.990       .  S
O318        H951   0.990   1_455  S
O319      Zr1063   2.370   1_554  S
O319       Zr916   2.376       .  S
O319       Zr339   2.384       .  S
O320       Zr466   2.365       .  S
O320        H347   0.966       .  S
O321        C323   1.286       .  A
O321       Zr933   2.428       .  S
O322        C323   1.289       .  A
O322       Zr340   2.447       .  S
C323        C372   1.484       .  S
O324        C326   1.293       .  A
O324       Zr336   2.469       .  S
O325        C326   1.284       .  A
C326        C392   1.475       .  S
O327        C329   1.291       .  A
O327       Zr936   2.460       .  S
O328        C329   1.282       .  A
O328       Zr490   2.404   1_554  S
C329        C402   1.463       .  S
O330        C332   1.283       .  A
O330       Zr333   2.413       .  S
O331        C332   1.288       .  A
C332        C425   1.490       .  S
Zr333       O921   2.428       .  S
Zr333       O334   2.436       .  S
Zr333       O335   2.435       .  S
Zr333       O941   2.360       .  S
Zr333       O492   2.368       .  S
Zr333       O943   2.370       .  S
O334        H954   0.990       .  S
O334        H359   0.990       .  S
O335        H955   0.990       .  S
Zr336       O927   2.460       .  S
Zr336       O937   2.434       .  S
Zr336       O338   2.436       .  S
Zr336       O342   2.374       .  S
Zr336      O1091   2.375       .  S
Zr336       O946   2.374       .  S
O337       Zr936   2.434       .  S
O337        H953   0.990   1_455  S
O338        H952   0.990       .  S
O338        H362   0.990       .  S
Zr339       O452   2.426   1_554  S
Zr339       O344   2.391       .  S
Zr339       O495   2.381   1_554  S
Zr340       O478   2.404       .  S
Zr340       O341   2.389       .  S
Zr340       O343   2.377       .  S
Zr340       O496   2.388       .  S
O341       Zr933   2.360       .  S
O341      Zr1086   2.375       .  S
O341        H349   0.966       .  S
O342       Zr483   2.368   1_554  S
O343       Zr933   2.370       .  S
O344       Zr916   2.373       .  S
O344        H348   0.966       .  S
O345       Zr913   2.359       .  S
O345       Zr489   2.381       .  S
O345        H350   0.966       .  S
O346       Zr936   2.374       .  S
O346       Zr490   2.388   1_554  S
H351        O918   0.990       .  S
H352        O938   0.990       .  S
H353        O937   0.990       .  S
H354        O934   0.990   1_455  S
H355        O935   0.990       .  S
H356        O915   0.990       .  S
H357        O914   0.990       .  S
H358        O917   0.990       .  S
H361        O917   0.990       .  S
C363        C364   1.560       .  S
C363        C366   1.573       .  S
C363        C367   1.571       .  S
C363        C375   1.553       .  S
C364        C365   1.575       .  S
C364        C370   1.559       .  S
C364        C435   1.548       .  S
C365        C366   1.587       .  S
C365        C369   1.564       .  S
C365        C385   1.546       .  S
C366        C368   1.553       .  S
C366        C405   1.551       .  S
C367        C368   1.568       .  S
C367        C370   1.574       .  S
C367        C422   1.546       .  S
C368        C369   1.578       .  S
C368        C395   1.549       .  S
C369        C370   1.566       .  S
C369        C442   1.558       .  S
C370        C415   1.535       .  S
C371        C372   1.402       .  A
C371        C376   1.391       .  A
C371        F378   1.359       .  S
C372        C373   1.406       .  A
C373        C374   1.409       .  A
C373        F380   1.356       .  S
C374        C375   1.415       .  A
C374        F379   1.356       .  S
C375        C376   1.416       .  A
C376        F377   1.352       .  S
C381        C382   1.400       .  A
C381        C386   1.399       .  A
C381        F388   1.357       .  S
C382        C383   1.399       .  A
C383        C384   1.397       .  A
C383        F390   1.358       .  S
C384        C385   1.414       .  A
C384        F389   1.354       .  S
C385        C386   1.409       .  A
C386        F387   1.350       .  S
C391        C392   1.399       .  A
C391        C396   1.401       .  A
C391        F398   1.358       .  S
C392        C393   1.401       .  A
C393        C394   1.402       .  A
C393        F400   1.358       .  S
C394        C395   1.417       .  A
C394        F399   1.351       .  S
C395        C396   1.414       .  A
C396        F397   1.349       .  S
C401        C402   1.395       .  A
C401        C406   1.394       .  A
C401        F408   1.357       .  S
C402        C403   1.399       .  A
C403        C404   1.403       .  A
C403        F410   1.357       .  S
C404        C405   1.420       .  A
C404        F409   1.354       .  S
C405        C406   1.404       .  A
C406        F407   1.340       .  S
C411        C412   1.401       .  A
C411        C416   1.402       .  A
C411        F418   1.358       .  S
C412        C413   1.397       .  A
C413        C414   1.396       .  A
C413        F420   1.358       .  S
C414        C415   1.414       .  A
C414        F419   1.349       .  S
C415        C416   1.414       .  A
C416        F417   1.355       .  S
C421        C422   1.405       .  A
C421        C426   1.384       .  A
C421        F428   1.343       .  S
C422        C423   1.415       .  A
C423        C424   1.408       .  A
C423        F430   1.349       .  S
C424        C425   1.409       .  A
C424        F429   1.357       .  S
C425        C426   1.408       .  A
C426        F427   1.359       .  S
C431        C432   1.405       .  A
C431        C436   1.403       .  A
C431        F438   1.358       .  S
C432        C433   1.406       .  A
C433        C434   1.391       .  A
C433        F440   1.359       .  S
C434        C435   1.412       .  A
C434        F439   1.350       .  S
C435        C436   1.416       .  A
C436        F437   1.346       .  S
C441        C442   1.417       .  A
C441        C446   1.398       .  A
C441        F448   1.346       .  S
C442        C443   1.408       .  A
C443        C444   1.395       .  A
C443        F450   1.344       .  S
C444        C445   1.409       .  A
C444        F449   1.358       .  S
C445        C446   1.404       .  A
C446        F447   1.358       .  S
O451        C453   1.287       .  A
O451      Zr1063   2.441       .  S
O452        C453   1.286       .  A
C453        C562   1.468       .  S
O454        C456   1.287       .  A
O454       Zr466   2.440       .  S
O455        C456   1.285       .  A
C456        C532   1.466       .  S
O457        C459   1.285       .  A
O457      Zr1066   2.423       .  S
O458        C459   1.288       .  A
O458       Zr489   2.430       .  S
C459        C595   1.488       .  S
O460        C462   1.285       .  A
O460       Zr463   2.421       .  S
O461        C462   1.289       .  A
C462        C582   1.487       .  S
Zr463      O1051   2.441   1_455  S
Zr463       O464   2.434       .  S
Zr463       O465   2.437       .  S
Zr463       O919   2.370   1_456  S
Zr463       O470   2.370       .  S
Zr463      O1095   2.359   1_455  S
O464       H1107   0.990   1_455  S
O465       H1106   0.990   1_455  S
O465        H510   0.990   1_455  S
Zr466      O1057   2.423   1_455  S
Zr466      O1067   2.436       .  S
Zr466       O468   2.436       .  S
Zr466      O1069   2.376   1_455  S
Zr466      O1094   2.373   1_455  S
O467      Zr1066   2.436       .  S
O467       H1108   0.990       .  S
O467       H1111   0.990       .  S
O468       H1101   0.990   1_455  S
O469       Zr913   2.370       .  S
O469      Zr1066   2.376       .  S
O469       Zr489   2.384       .  S
O470        H497   0.966       .  S
O471        C473   1.286       .  A
O471      Zr1083   2.428       .  S
O472        C473   1.289       .  A
O472       Zr490   2.447       .  S
C473        C522   1.484       .  S
O474        C476   1.293       .  A
O474       Zr486   2.469       .  S
O475        C476   1.284       .  A
C476        C542   1.475       .  S
O477        C479   1.291       .  A
O477      Zr1086   2.460       .  S
O478        C479   1.282       .  A
C479        C552   1.463       .  S
O480        C482   1.283       .  A
O480       Zr483   2.413       .  S
O481        C482   1.288       .  A
C482        C575   1.490       .  S
Zr483      O1071   2.428       .  S
Zr483       O484   2.436       .  S
Zr483       O485   2.435       .  S
Zr483      O1091   2.360   1_556  S
Zr483      O1093   2.370       .  S
O484       H1104   0.990       .  S
O484        H509   0.990       .  S
O485       H1105   0.990       .  S
Zr486      O1077   2.460       .  S
Zr486      O1087   2.434       .  S
Zr486       O488   2.436       .  S
Zr486       O492   2.374       .  S
Zr486       O941   2.375       .  S
Zr486      O1096   2.374       .  S
O487      Zr1086   2.434       .  S
O487       H1103   0.990   1_455  S
O488       H1102   0.990       .  S
O488        H512   0.990       .  S
Zr489       O494   2.391       .  S
Zr490       O491   2.389   1_556  S
Zr490       O493   2.377       .  S
O491      Zr1083   2.360   1_554  S
O491       Zr936   2.375       .  S
O491        H499   0.966       .  S
O493      Zr1083   2.370       .  S
O494      Zr1066   2.373       .  S
O494        H498   0.966       .  S
O495      Zr1063   2.359       .  S
O495        H500   0.966       .  S
O496      Zr1086   2.374       .  S
H501       O1068   0.990       .  S
H502       O1088   0.990       .  S
H503       O1087   0.990       .  S
H504       O1084   0.990   1_455  S
H505       O1085   0.990       .  S
H506       O1065   0.990       .  S
H507       O1064   0.990       .  S
H508       O1067   0.990       .  S
H511       O1067   0.990       .  S
C513        C514   1.560       .  S
C513        C516   1.573       .  S
C513        C517   1.571       .  S
C513        C525   1.553       .  S
C514        C515   1.575       .  S
C514        C520   1.559       .  S
C514        C585   1.548       .  S
C515        C516   1.587       .  S
C515        C519   1.564       .  S
C515        C535   1.546       .  S
C516        C518   1.553       .  S
C516        C555   1.551       .  S
C517        C518   1.568       .  S
C517        C520   1.574       .  S
C517        C572   1.546       .  S
C518        C519   1.578       .  S
C518        C545   1.549       .  S
C519        C520   1.566       .  S
C519        C592   1.558       .  S
C520        C565   1.535       .  S
C521        C522   1.402       .  A
C521        C526   1.391       .  A
C521        F528   1.359       .  S
C522        C523   1.406       .  A
C523        C524   1.409       .  A
C523        F530   1.356       .  S
C524        C525   1.415       .  A
C524        F529   1.356       .  S
C525        C526   1.416       .  A
C526        F527   1.352       .  S
C531        C532   1.400       .  A
C531        C536   1.399       .  A
C531        F538   1.357       .  S
C532        C533   1.399       .  A
C533        C534   1.397       .  A
C533        F540   1.358       .  S
C534        C535   1.414       .  A
C534        F539   1.354       .  S
C535        C536   1.409       .  A
C536        F537   1.350       .  S
C541        C542   1.399       .  A
C541        C546   1.401       .  A
C541        F548   1.358       .  S
C542        C543   1.401       .  A
C543        C544   1.402       .  A
C543        F550   1.358       .  S
C544        C545   1.417       .  A
C544        F549   1.351       .  S
C545        C546   1.414       .  A
C546        F547   1.349       .  S
C551        C552   1.395       .  A
C551        C556   1.394       .  A
C551        F558   1.357       .  S
C552        C553   1.399       .  A
C553        C554   1.403       .  A
C553        F560   1.357       .  S
C554        C555   1.420       .  A
C554        F559   1.354       .  S
C555        C556   1.404       .  A
C556        F557   1.340       .  S
C561        C562   1.401       .  A
C561        C566   1.402       .  A
C561        F568   1.358       .  S
C562        C563   1.397       .  A
C563        C564   1.396       .  A
C563        F570   1.358       .  S
C564        C565   1.414       .  A
C564        F569   1.349       .  S
C565        C566   1.414       .  A
C566        F567   1.355       .  S
C571        C572   1.405       .  A
C571        C576   1.384       .  A
C571        F578   1.343       .  S
C572        C573   1.415       .  A
C573        C574   1.408       .  A
C573        F580   1.349       .  S
C574        C575   1.409       .  A
C574        F579   1.357       .  S
C575        C576   1.408       .  A
C576        F577   1.359       .  S
C581        C582   1.405       .  A
C581        C586   1.403       .  A
C581        F588   1.358       .  S
C582        C583   1.406       .  A
C583        C584   1.391       .  A
C583        F590   1.359       .  S
C584        C585   1.412       .  A
C584        F589   1.350       .  S
C585        C586   1.416       .  A
C586        F587   1.346       .  S
C591        C592   1.417       .  A
C591        C596   1.398       .  A
C591        F598   1.346       .  S
C592        C593   1.408       .  A
C593        C594   1.395       .  A
C593        F600   1.344       .  S
C594        C595   1.409       .  A
C594        F599   1.358       .  S
C595        C596   1.404       .  A
C596        F597   1.358       .  S
O601        C603   1.287       .  A
O602        C603   1.286       .  A
O602       Zr789   2.426       .  S
C603        C712   1.468       .  S
O604        C606   1.287       .  A
O604       Zr616   2.440       .  S
O605        C606   1.285       .  A
O605      Zr1090   2.419   1_554  S
C606        C682   1.466       .  S
O607        C609   1.285       .  A
O608        C609   1.288       .  A
O608       Zr639   2.430       .  S
C609        C745   1.488       .  S
O610        C612   1.285       .  A
O610       Zr613   2.421       .  S
O611        C612   1.289       .  A
O611       Zr940   2.438       .  S
C612        C732   1.487       .  S
Zr613       O614   2.434       .  S
Zr613       O615   2.437       .  S
Zr613       O620   2.370       .  S
Zr613       O943   2.378       .  S
O615        H660   0.990       .  S
Zr616       O618   2.436       .  S
Zr616       O770   2.365   1_554  S
Zr616       O946   2.363       .  S
O619       Zr639   2.384       .  S
O620       Zr766   2.365       .  S
O620       Zr940   2.385       .  S
O620        H647   0.966       .  S
O621        C623   1.286       .  A
O622        C623   1.289       .  A
O622       Zr640   2.447   1_545  S
C623        C672   1.484       .  S
O624        C626   1.293       .  A
O624       Zr636   2.469   1_655  S
O625        C626   1.284       .  A
O625       Zr939   2.416   1_545  S
C626        C692   1.475       .  S
O627        C629   1.291       .  A
O628        C629   1.282       .  A
O628       Zr790   2.404   1_544  S
C629        C702   1.463       .  S
O630        C632   1.283       .  A
O630       Zr633   2.413   1_655  S
O631        C632   1.288       .  A
O631      Zr1089   2.439   1_545  S
C632        C725   1.490       .  S
Zr633       O634   2.436   1_455  S
Zr633       O635   2.435       .  S
Zr633       O792   2.368   1_455  S
Zr633       O945   2.369   1_445  S
O634        H659   0.990   1_655  S
Zr636       O638   2.436       .  S
Zr636       O642   2.374   1_455  S
Zr636       O944   2.366   1_445  S
O638        H662   0.990       .  S
Zr639       O752   2.426   1_554  S
Zr639       O925   2.416       .  S
Zr639      O1081   2.439   1_554  S
Zr639       O942   2.387       .  S
Zr639       O644   2.391       .  S
Zr639       O795   2.381   1_554  S
Zr640      O1055   2.419       .  S
Zr640       O911   2.438       .  S
Zr640       O778   2.404   1_565  S
Zr640       O920   2.385       .  S
Zr640       O641   2.389   1_565  S
Zr640       O643   2.377       .  S
Zr640       O796   2.388       .  S
O641        H649   0.966       .  S
O642       Zr783   2.368   1_654  S
O642       Zr939   2.387   1_545  S
O643       Zr913   2.378       .  S
O644       Zr936   2.366   1_655  S
O644        H648   0.966       .  S
O645       Zr933   2.369   1_655  S
O645       Zr789   2.381       .  S
O645        H650   0.966       .  S
O646       Zr916   2.363       .  S
O646       Zr790   2.388   1_554  S
C663        C664   1.560       .  S
C663        C666   1.573       .  S
C663        C667   1.571       .  S
C663        C675   1.553       .  S
C664        C665   1.575       .  S
C664        C670   1.559       .  S
C664        C735   1.548       .  S
C665        C666   1.587       .  S
C665        C669   1.564       .  S
C665        C685   1.546       .  S
C666        C668   1.553       .  S
C666        C705   1.551       .  S
C667        C668   1.568       .  S
C667        C670   1.574       .  S
C667        C722   1.546       .  S
C668        C669   1.578       .  S
C668        C695   1.549       .  S
C669        C670   1.566       .  S
C669        C742   1.558       .  S
C670        C715   1.535       .  S
C671        C672   1.402       .  A
C671        C676   1.391       .  A
C671        F678   1.359       .  S
C672        C673   1.406       .  A
C673        C674   1.409       .  A
C673        F680   1.356       .  S
C674        C675   1.415       .  A
C674        F679   1.356       .  S
C675        C676   1.416       .  A
C676        F677   1.352       .  S
C681        C682   1.400       .  A
C681        C686   1.399       .  A
C681        F688   1.357       .  S
C682        C683   1.399       .  A
C683        C684   1.397       .  A
C683        F690   1.358       .  S
C684        C685   1.414       .  A
C684        F689   1.354       .  S
C685        C686   1.409       .  A
C686        F687   1.350       .  S
C691        C692   1.399       .  A
C691        C696   1.401       .  A
C691        F698   1.358       .  S
C692        C693   1.401       .  A
C693        C694   1.402       .  A
C693        F700   1.358       .  S
C694        C695   1.417       .  A
C694        F699   1.351       .  S
C695        C696   1.414       .  A
C696        F697   1.349       .  S
C701        C702   1.395       .  A
C701        C706   1.394       .  A
C701        F708   1.357       .  S
C702        C703   1.399       .  A
C703        C704   1.403       .  A
C703        F710   1.357       .  S
C704        C705   1.420       .  A
C704        F709   1.354       .  S
C705        C706   1.404       .  A
C706        F707   1.340       .  S
C711        C712   1.401       .  A
C711        C716   1.402       .  A
C711        F718   1.358       .  S
C712        C713   1.397       .  A
C713        C714   1.396       .  A
C713        F720   1.358       .  S
C714        C715   1.414       .  A
C714        F719   1.349       .  S
C715        C716   1.414       .  A
C716        F717   1.355       .  S
C721        C722   1.405       .  A
C721        C726   1.384       .  A
C721        F728   1.343       .  S
C722        C723   1.415       .  A
C723        C724   1.408       .  A
C723        F730   1.349       .  S
C724        C725   1.409       .  A
C724        F729   1.357       .  S
C725        C726   1.408       .  A
C726        F727   1.359       .  S
C731        C732   1.405       .  A
C731        C736   1.403       .  A
C731        F738   1.358       .  S
C732        C733   1.406       .  A
C733        C734   1.391       .  A
C733        F740   1.359       .  S
C734        C735   1.412       .  A
C734        F739   1.350       .  S
C735        C736   1.416       .  A
C736        F737   1.346       .  S
C741        C742   1.417       .  A
C741        C746   1.398       .  A
C741        F748   1.346       .  S
C742        C743   1.408       .  A
C743        C744   1.395       .  A
C743        F750   1.344       .  S
C744        C745   1.409       .  A
C744        F749   1.358       .  S
C745        C746   1.404       .  A
C746        F747   1.358       .  S
O751        C753   1.287       .  A
O752        C753   1.286       .  A
C753        C862   1.468       .  S
O754        C756   1.287       .  A
O754       Zr766   2.440       .  S
O755        C756   1.285       .  A
O755       Zr940   2.419       .  S
C756        C832   1.466       .  S
O757        C759   1.285       .  A
O758        C759   1.288       .  A
O758       Zr789   2.430       .  S
C759        C895   1.488       .  S
O760        C762   1.285       .  A
O760       Zr763   2.421       .  S
O761        C762   1.289       .  A
O761      Zr1090   2.438       .  S
C762        C882   1.487       .  S
Zr763       O764   2.434       .  S
Zr763       O765   2.437       .  S
Zr763       O770   2.370       .  S
Zr763      O1093   2.378       .  S
O765        H810   0.990       .  S
Zr766       O768   2.436       .  S
Zr766      O1096   2.363       .  S
O769       Zr789   2.384       .  S
O770      Zr1090   2.385       .  S
O770        H797   0.966       .  S
O771        C773   1.286       .  A
O772        C773   1.289       .  A
O772       Zr790   2.447   1_545  S
C773        C822   1.484       .  S
O774        C776   1.293       .  A
O774       Zr786   2.469   1_655  S
O775        C776   1.284       .  A
O775      Zr1089   2.416   1_545  S
C776        C842   1.475       .  S
O777        C779   1.291       .  A
O778        C779   1.282       .  A
C779        C852   1.463       .  S
O780        C782   1.283       .  A
O780       Zr783   2.413   1_655  S
O781        C782   1.288       .  A
O781       Zr939   2.439   1_546  S
C782        C875   1.490       .  S
Zr783       O784   2.436   1_455  S
Zr783       O785   2.435       .  S
Zr783      O1095   2.369   1_445  S
O784        H809   0.990   1_655  S
Zr786       O788   2.436       .  S
Zr786       O792   2.374   1_455  S
Zr786      O1094   2.366   1_445  S
O788        H812   0.990       .  S
Zr789      O1075   2.416       .  S
Zr789       O931   2.439       .  S
Zr789      O1092   2.387       .  S
Zr789       O794   2.391       .  S
Zr790       O905   2.419   1_556  S
Zr790      O1061   2.438       .  S
Zr790      O1070   2.385       .  S
Zr790       O791   2.389   1_566  S
Zr790       O793   2.377       .  S
O791        H799   0.966       .  S
O792      Zr1089   2.387   1_545  S
O793      Zr1063   2.378       .  S
O794      Zr1086   2.366   1_655  S
O794        H798   0.966       .  S
O795      Zr1083   2.369   1_655  S
O795        H800   0.966       .  S
O796      Zr1066   2.363       .  S
C813        C814   1.560       .  S
C813        C816   1.573       .  S
C813        C817   1.571       .  S
C813        C825   1.553       .  S
C814        C815   1.575       .  S
C814        C820   1.559       .  S
C814        C885   1.548       .  S
C815        C816   1.587       .  S
C815        C819   1.564       .  S
C815        C835   1.546       .  S
C816        C818   1.553       .  S
C816        C855   1.551       .  S
C817        C818   1.568       .  S
C817        C820   1.574       .  S
C817        C872   1.546       .  S
C818        C819   1.578       .  S
C818        C845   1.549       .  S
C819        C820   1.566       .  S
C819        C892   1.558       .  S
C820        C865   1.535       .  S
C821        C822   1.402       .  A
C821        C826   1.391       .  A
C821        F828   1.359       .  S
C822        C823   1.406       .  A
C823        C824   1.409       .  A
C823        F830   1.356       .  S
C824        C825   1.415       .  A
C824        F829   1.356       .  S
C825        C826   1.416       .  A
C826        F827   1.352       .  S
C831        C832   1.400       .  A
C831        C836   1.399       .  A
C831        F838   1.357       .  S
C832        C833   1.399       .  A
C833        C834   1.397       .  A
C833        F840   1.358       .  S
C834        C835   1.414       .  A
C834        F839   1.354       .  S
C835        C836   1.409       .  A
C836        F837   1.350       .  S
C841        C842   1.399       .  A
C841        C846   1.401       .  A
C841        F848   1.358       .  S
C842        C843   1.401       .  A
C843        C844   1.402       .  A
C843        F850   1.358       .  S
C844        C845   1.417       .  A
C844        F849   1.351       .  S
C845        C846   1.414       .  A
C846        F847   1.349       .  S
C851        C852   1.395       .  A
C851        C856   1.394       .  A
C851        F858   1.357       .  S
C852        C853   1.399       .  A
C853        C854   1.403       .  A
C853        F860   1.357       .  S
C854        C855   1.420       .  A
C854        F859   1.354       .  S
C855        C856   1.404       .  A
C856        F857   1.340       .  S
C861        C862   1.401       .  A
C861        C866   1.402       .  A
C861        F868   1.358       .  S
C862        C863   1.397       .  A
C863        C864   1.396       .  A
C863        F870   1.358       .  S
C864        C865   1.414       .  A
C864        F869   1.349       .  S
C865        C866   1.414       .  A
C866        F867   1.355       .  S
C871        C872   1.405       .  A
C871        C876   1.384       .  A
C871        F878   1.343       .  S
C872        C873   1.415       .  A
C873        C874   1.408       .  A
C873        F880   1.349       .  S
C874        C875   1.409       .  A
C874        F879   1.357       .  S
C875        C876   1.408       .  A
C876        F877   1.359       .  S
C881        C882   1.405       .  A
C881        C886   1.403       .  A
C881        F888   1.358       .  S
C882        C883   1.406       .  A
C883        C884   1.391       .  A
C883        F890   1.359       .  S
C884        C885   1.412       .  A
C884        F889   1.350       .  S
C885        C886   1.416       .  A
C886        F887   1.346       .  S
C891        C892   1.417       .  A
C891        C896   1.398       .  A
C891        F898   1.346       .  S
C892        C893   1.408       .  A
C893        C894   1.395       .  A
C893        F900   1.344       .  S
C894        C895   1.409       .  A
C894        F899   1.358       .  S
C895        C896   1.404       .  A
C896        F897   1.358       .  S
O901        C903   1.287       .  A
O902        C903   1.286       .  A
O902      Zr1089   2.426       .  S
C903       C1012   1.468       .  S
O904        C906   1.287       .  A
O904       Zr916   2.440       .  S
O905        C906   1.285       .  A
C906        C982   1.466       .  S
O907        C909   1.285       .  A
O908        C909   1.288       .  A
O908       Zr939   2.430       .  S
C909       C1045   1.488       .  S
O910        C912   1.285       .  A
O910       Zr913   2.421       .  S
O911        C912   1.289       .  A
C912       C1032   1.487       .  S
Zr913       O914   2.434       .  S
Zr913       O915   2.437       .  S
Zr913       O920   2.370       .  S
O915        H960   0.990       .  S
Zr916       O918   2.436       .  S
Zr916      O1070   2.365   1_554  S
O919       Zr939   2.384       .  S
O920      Zr1066   2.365       .  S
O920        H947   0.966       .  S
O921        C923   1.286       .  A
O922        C923   1.289       .  A
O922       Zr940   2.447       .  S
C923        C972   1.484       .  S
O924        C926   1.293       .  A
O924       Zr936   2.469   1_655  S
O925        C926   1.284       .  A
C926        C992   1.475       .  S
O927        C929   1.291       .  A
O928        C929   1.282       .  A
O928      Zr1090   2.404   1_554  S
C929       C1002   1.463       .  S
O930        C932   1.283       .  A
O930       Zr933   2.413   1_655  S
O931        C932   1.288       .  A
C932       C1025   1.490       .  S
Zr933       O934   2.436   1_455  S
Zr933       O935   2.435       .  S
Zr933      O1092   2.368   1_455  S
O934        H959   0.990   1_655  S
Zr936       O938   2.436       .  S
Zr936       O942   2.374   1_455  S
O938        H962   0.990       .  S
Zr939      O1052   2.426   1_554  S
Zr939       O944   2.391       .  S
Zr939      O1095   2.381   1_554  S
Zr940      O1078   2.404       .  S
Zr940       O941   2.389       .  S
Zr940       O943   2.377       .  S
Zr940      O1096   2.388       .  S
O941        H949   0.966       .  S
O942      Zr1083   2.368   1_654  S
O944        H948   0.966       .  S
O945      Zr1089   2.381       .  S
O945        H950   0.966       .  S
O946      Zr1090   2.388   1_554  S
C963        C964   1.560       .  S
C963        C966   1.573       .  S
C963        C967   1.571       .  S
C963        C975   1.553       .  S
C964        C965   1.575       .  S
C964        C970   1.559       .  S
C964       C1035   1.548       .  S
C965        C966   1.587       .  S
C965        C969   1.564       .  S
C965        C985   1.546       .  S
C966        C968   1.553       .  S
C966       C1005   1.551       .  S
C967        C968   1.568       .  S
C967        C970   1.574       .  S
C967       C1022   1.546       .  S
C968        C969   1.578       .  S
C968        C995   1.549       .  S
C969        C970   1.566       .  S
C969       C1042   1.558       .  S
C970       C1015   1.535       .  S
C971        C972   1.402       .  A
C971        C976   1.391       .  A
C971        F978   1.359       .  S
C972        C973   1.406       .  A
C973        C974   1.409       .  A
C973        F980   1.356       .  S
C974        C975   1.415       .  A
C974        F979   1.356       .  S
C975        C976   1.416       .  A
C976        F977   1.352       .  S
C981        C982   1.400       .  A
C981        C986   1.399       .  A
C981        F988   1.357       .  S
C982        C983   1.399       .  A
C983        C984   1.397       .  A
C983        F990   1.358       .  S
C984        C985   1.414       .  A
C984        F989   1.354       .  S
C985        C986   1.409       .  A
C986        F987   1.350       .  S
C991        C992   1.399       .  A
C991        C996   1.401       .  A
C991        F998   1.358       .  S
C992        C993   1.401       .  A
C993        C994   1.402       .  A
C993       F1000   1.358       .  S
C994        C995   1.417       .  A
C994        F999   1.351       .  S
C995        C996   1.414       .  A
C996        F997   1.349       .  S
C1001      C1002   1.395       .  A
C1001      C1006   1.394       .  A
C1001      F1008   1.357       .  S
C1002      C1003   1.399       .  A
C1003      C1004   1.403       .  A
C1003      F1010   1.357       .  S
C1004      C1005   1.420       .  A
C1004      F1009   1.354       .  S
C1005      C1006   1.404       .  A
C1006      F1007   1.340       .  S
C1011      C1012   1.401       .  A
C1011      C1016   1.402       .  A
C1011      F1018   1.358       .  S
C1012      C1013   1.397       .  A
C1013      C1014   1.396       .  A
C1013      F1020   1.358       .  S
C1014      C1015   1.414       .  A
C1014      F1019   1.349       .  S
C1015      C1016   1.414       .  A
C1016      F1017   1.355       .  S
C1021      C1022   1.405       .  A
C1021      C1026   1.384       .  A
C1021      F1028   1.343       .  S
C1022      C1023   1.415       .  A
C1023      C1024   1.408       .  A
C1023      F1030   1.349       .  S
C1024      C1025   1.409       .  A
C1024      F1029   1.357       .  S
C1025      C1026   1.408       .  A
C1026      F1027   1.359       .  S
C1031      C1032   1.405       .  A
C1031      C1036   1.403       .  A
C1031      F1038   1.358       .  S
C1032      C1033   1.406       .  A
C1033      C1034   1.391       .  A
C1033      F1040   1.359       .  S
C1034      C1035   1.412       .  A
C1034      F1039   1.350       .  S
C1035      C1036   1.416       .  A
C1036      F1037   1.346       .  S
C1041      C1042   1.417       .  A
C1041      C1046   1.398       .  A
C1041      F1048   1.346       .  S
C1042      C1043   1.408       .  A
C1043      C1044   1.395       .  A
C1043      F1050   1.344       .  S
C1044      C1045   1.409       .  A
C1044      F1049   1.358       .  S
C1045      C1046   1.404       .  A
C1046      F1047   1.358       .  S
O1051      C1053   1.287       .  A
O1052      C1053   1.286       .  A
C1053      C1162   1.468       .  S
O1054      C1056   1.287       .  A
O1054     Zr1066   2.440       .  S
O1055      C1056   1.285       .  A
C1056      C1132   1.466       .  S
O1057      C1059   1.285       .  A
O1058      C1059   1.288       .  A
O1058     Zr1089   2.430       .  S
C1059      C1195   1.488       .  S
O1060      C1062   1.285       .  A
O1060     Zr1063   2.421       .  S
O1061      C1062   1.289       .  A
C1062      C1182   1.487       .  S
Zr1063     O1064   2.434       .  S
Zr1063     O1065   2.437       .  S
Zr1063     O1070   2.370       .  S
O1065      H1110   0.990       .  S
Zr1066     O1068   2.436       .  S
O1069     Zr1089   2.384       .  S
O1070      H1097   0.966       .  S
O1071      C1073   1.286       .  A
O1072      C1073   1.289       .  A
O1072     Zr1090   2.447       .  S
C1073      C1122   1.484       .  S
O1074      C1076   1.293       .  A
O1074     Zr1086   2.469   1_655  S
O1075      C1076   1.284       .  A
C1076      C1142   1.475       .  S
O1077      C1079   1.291       .  A
O1078      C1079   1.282       .  A
C1079      C1152   1.463       .  S
O1080      C1082   1.283       .  A
O1080     Zr1083   2.413   1_655  S
O1081      C1082   1.288       .  A
C1082      C1175   1.490       .  S
Zr1083     O1084   2.436   1_455  S
Zr1083     O1085   2.435       .  S
O1084      H1109   0.990   1_655  S
Zr1086     O1088   2.436       .  S
Zr1086     O1092   2.374   1_455  S
O1088      H1112   0.990       .  S
Zr1089     O1094   2.391       .  S
Zr1090     O1091   2.389   1_556  S
Zr1090     O1093   2.377       .  S
O1091      H1099   0.966       .  S
O1094      H1098   0.966       .  S
O1095      H1100   0.966       .  S
C1113      C1114   1.560       .  S
C1113      C1116   1.573       .  S
C1113      C1117   1.571       .  S
C1113      C1125   1.553       .  S
C1114      C1115   1.575       .  S
C1114      C1120   1.559       .  S
C1114      C1185   1.548       .  S
C1115      C1116   1.587       .  S
C1115      C1119   1.564       .  S
C1115      C1135   1.546       .  S
C1116      C1118   1.553       .  S
C1116      C1155   1.551       .  S
C1117      C1118   1.568       .  S
C1117      C1120   1.574       .  S
C1117      C1172   1.546       .  S
C1118      C1119   1.578       .  S
C1118      C1145   1.549       .  S
C1119      C1120   1.566       .  S
C1119      C1192   1.558       .  S
C1120      C1165   1.535       .  S
C1121      C1122   1.402       .  A
C1121      C1126   1.391       .  A
C1121      F1128   1.359       .  S
C1122      C1123   1.406       .  A
C1123      C1124   1.409       .  A
C1123      F1130   1.356       .  S
C1124      C1125   1.415       .  A
C1124      F1129   1.356       .  S
C1125      C1126   1.416       .  A
C1126      F1127   1.352       .  S
C1131      C1132   1.400       .  A
C1131      C1136   1.399       .  A
C1131      F1138   1.357       .  S
C1132      C1133   1.399       .  A
C1133      C1134   1.397       .  A
C1133      F1140   1.358       .  S
C1134      C1135   1.414       .  A
C1134      F1139   1.354       .  S
C1135      C1136   1.409       .  A
C1136      F1137   1.350       .  S
C1141      C1142   1.399       .  A
C1141      C1146   1.401       .  A
C1141      F1148   1.358       .  S
C1142      C1143   1.401       .  A
C1143      C1144   1.402       .  A
C1143      F1150   1.358       .  S
C1144      C1145   1.417       .  A
C1144      F1149   1.351       .  S
C1145      C1146   1.414       .  A
C1146      F1147   1.349       .  S
C1151      C1152   1.395       .  A
C1151      C1156   1.394       .  A
C1151      F1158   1.357       .  S
C1152      C1153   1.399       .  A
C1153      C1154   1.403       .  A
C1153      F1160   1.357       .  S
C1154      C1155   1.420       .  A
C1154      F1159   1.354       .  S
C1155      C1156   1.404       .  A
C1156      F1157   1.340       .  S
C1161      C1162   1.401       .  A
C1161      C1166   1.402       .  A
C1161      F1168   1.358       .  S
C1162      C1163   1.397       .  A
C1163      C1164   1.396       .  A
C1163      F1170   1.358       .  S
C1164      C1165   1.414       .  A
C1164      F1169   1.349       .  S
C1165      C1166   1.414       .  A
C1166      F1167   1.355       .  S
C1171      C1172   1.405       .  A
C1171      C1176   1.384       .  A
C1171      F1178   1.343       .  S
C1172      C1173   1.415       .  A
C1173      C1174   1.408       .  A
C1173      F1180   1.349       .  S
C1174      C1175   1.409       .  A
C1174      F1179   1.357       .  S
C1175      C1176   1.408       .  A
C1176      F1177   1.359       .  S
C1181      C1182   1.405       .  A
C1181      C1186   1.403       .  A
C1181      F1188   1.358       .  S
C1182      C1183   1.406       .  A
C1183      C1184   1.391       .  A
C1183      F1190   1.359       .  S
C1184      C1185   1.412       .  A
C1184      F1189   1.350       .  S
C1185      C1186   1.416       .  A
C1186      F1187   1.346       .  S
C1191      C1192   1.417       .  A
C1191      C1196   1.398       .  A
C1191      F1198   1.346       .  S
C1192      C1193   1.408       .  A
C1193      C1194   1.395       .  A
C1193      F1200   1.344       .  S
C1194      C1195   1.409       .  A
C1194      F1199   1.358       .  S
C1195      C1196   1.404       .  A
C1196      F1197   1.358       .  S
