geometry optimzed in LAMMPS
_audit_creation_date              2020-12-01 
_audit_creation_method            'lammps2cif' 
_symmetry_space_group_name_H-M    'P1' 
_symmetry_Int_Tables_number       1 
_symmetry_cell_setting            triclinic 
loop_ 
_symmetry_equiv_pos_as_xyz 
  x,y,z 
_cell_length_a                    31.84534897 
_cell_length_b                    33.021817298828275 
_cell_length_c                    32.842018799385286 
_cell_angle_alpha                 90.09617320666713 
_cell_angle_beta                  90.62012000279123 
_cell_angle_gamma                 83.24837946045535 
loop_ 
_atom_site_label 
_atom_site_type_symbol 
_atom_site_fract_x 
_atom_site_fract_y 
_atom_site_fract_z 
_atom_site_charge 
C1          C  0.86567710  0.88213055  0.62482836    -0.02200
C2          C  0.49853818  0.53682927  0.62224366    -0.02200
C3          C  0.84446678  0.55352956  0.93607264    -0.02200
C4          C  0.52021214  0.86703785  0.95243593    -0.02200
C5          C  0.99638944  0.04358959  0.43787320    -0.02200
C6          C  0.02226647  0.36562047  0.09711480    -0.02200
C7          C  0.34781297  0.05636161  0.11397610    -0.02200
C8          C  0.36340700  0.37763540  0.43305239    -0.02200
Zr9        Zr  0.89512574  0.92066601  0.97494195     2.17500
O10         O  0.84200944  0.93884445  0.92202554    -0.51000
O11         O  0.89769668  0.84725457  0.97025193    -0.74200
O12         O  0.92585135  0.91025916  0.90852319    -0.81000
O13         O  0.80769684  0.92909326  0.05218788    -0.82800
O14         O  0.98576954  0.94172241  0.90728818    -0.78400
O15         O  0.82482302  0.90568396  0.98850740    -0.90000
O16         O  0.94367908  0.81986579  0.01889116    -0.76000
O17         O  0.96839348  0.90000204  0.98599745    -0.85500
O18         O  0.89949842  0.89605024  0.04279980    -0.85200
O19         O  0.92866271  0.98097901  0.96403767    -0.71900
O20         O  0.86536624  0.97644611  0.01634299    -0.84100
Zr21       Zr  0.97863997  0.99123517  0.08724731     2.26400
Zr22       Zr  0.00233914  0.96060480  0.97740736     2.06300
Zr23       Zr  0.87125541  0.95145954  0.08468027     2.10000
Zr24       Zr  0.97257510  0.87560830  0.05411697     1.78800
O25         O  0.81004458  0.99705282  0.10690587    -0.92900
O26         O  0.03457936  0.83723232  0.02394257    -0.40700
O27         O  0.94490334  0.93087517  0.09746895    -0.77300
O28         O  0.00853512  0.93499394  0.04595680    -0.96000
O29         O  0.97391480  0.01598299  0.01944474    -0.89300
O30         O  0.90530198  0.01179809  0.07561612    -0.92100
C31         C  0.91658397  0.81693782  0.99012092     1.01600
C32         C  0.79902325  0.91253142  0.01794187     1.14500
C33         C  0.95698268  0.92306575  0.89021201     1.05300
O34         O  0.06420203  0.91558352  0.95560342    -0.94300
O35         O  0.06492558  0.98759868  0.00690358    -0.90000
O36         O  0.04980713  0.00325051  0.07306866    -0.83200
C37         C  0.07451740  0.00041389  0.04256211     1.12000
O38         O  0.84422180  0.05020014  0.95706393    -0.96300
Zr39       Zr  0.90088150  0.03577451  0.00731762     1.88900
O40         O  0.97913644  0.06511459  0.08888273    -0.72900
O41         O  0.01804928  0.01531008  0.93250610    -0.52200
O42         O  0.92306657  0.07593026  0.95096463    -0.96900
O43         O  0.84156257  0.07973537  0.03590405    -0.54100
O44         O  0.93442726  0.09063998  0.03837859    -0.73400
C45         C  0.96152108  0.09459894  0.06685691     0.98900
O46         O  0.02596561  0.97471461  0.14563490    -0.62300
O47         O  0.85576282  0.89607418  0.12894304    -0.57100
O48         O  0.94759716  0.00172143  0.15346638    -0.93700
O49         O  0.88827077  0.96934038  0.15492938    -0.92200
O50         O  0.94941409  0.83047956  0.10584191    -0.92500
O51         O  0.02543926  0.85696846  0.10709111    -0.91300
C52         C  0.91686624  0.98832506  0.17190350     1.17800
H53         H  0.88309318  0.87344887  0.04622424     0.33700
H54         H  0.03795106  0.92767621  0.05300333     0.44600
H55         H  0.89451249  0.03303633  0.09430131     0.38100
H56         H  0.92419287  0.98999386  0.93620703     0.34600
H57         H  0.03465763  0.80917407  0.03455427     0.26300
H58         H  0.03839066  0.00192249  0.91266802     0.32300
H59         H  0.95160888  0.08246254  0.95884077     0.38200
H60         H  0.92017606  0.82624651  0.09784291     0.32700
H61         H  0.83076661  0.90758028  0.14461439     0.31500
H62         H  0.80568942  0.98932214  0.13553256     0.33200
H63         H  0.85328164  0.09300682  0.05983157     0.32200
H64         H  0.03467567  0.88315793  0.11615185     0.36200
H65         H  0.01389618  0.95268436  0.16033433     0.28900
H66         H  0.84246191  0.91438039  0.90447801     0.33100
H67         H  0.83946733  0.08028620  0.95473519     0.36000
H68         H  0.84495624  0.87573607  0.11063697     0.28600
H69         H  0.05265134  0.96085112  0.13452285     0.41500
H70         H  0.05338668  0.89690306  0.93546421     0.31500
H71         H  0.02737877  0.83502520  0.99467822     0.39100
H72         H  0.82315493  0.06066593  0.04759903     0.31000
H73         H  0.99175411  0.02261071  0.91646479     0.31100
H74         H  0.85373135  0.95944205  0.90499637     0.31300
Zr75       Zr  0.87961613  0.51682050  0.55620028     2.17500
O76         O  0.82630109  0.57612184  0.55135464    -0.51000
O77         O  0.88034472  0.51692411  0.63084015    -0.74200
O78         O  0.80843151  0.50081310  0.56583141    -0.81000
O79         O  0.96175663  0.58942057  0.53560485    -0.82800
O80         O  0.80186765  0.43651075  0.54413071    -0.78400
O81         O  0.89849551  0.58458122  0.56564473    -0.90000
O82         O  0.92851386  0.46467061  0.65152827    -0.76000
O83         O  0.89150111  0.44739470  0.57656247    -0.85500
O84         O  0.95281594  0.50545274  0.57284422    -0.85200
O85         O  0.85926479  0.47977849  0.49740841    -0.71900
O86         O  0.91543663  0.53235514  0.49504033    -0.84100
Zr87       Zr  0.98216163  0.41148776  0.47453764     2.26400
Zr88       Zr  0.87196111  0.40968279  0.51830545     2.06300
Zr89       Zr  0.98909393  0.52022023  0.51225421     2.10000
Zr90       Zr  0.96519087  0.43575505  0.59196157     1.78800
O91         O  0.00657942  0.56630418  0.45885138    -0.92900
O92         O  0.95217045  0.37591475  0.63105096    -0.40700
O93         O  0.00306664  0.44991962  0.53200405    -0.77300
O94         O  0.94586328  0.39589237  0.53524796    -0.96000
O95         O  0.90917643  0.42301075  0.45751279    -0.89300
O96         O  0.97085450  0.48121224  0.45461484    -0.92100
C97         C  0.90001526  0.49455981  0.65864747     1.01600
C98         C  0.92852986  0.60469042  0.55500191     1.14500
C99         C  0.78679079  0.47114586  0.55918865     1.05300
O100        O  0.85428476  0.36278819  0.57085683    -0.94300
O101        O  0.89704785  0.34120553  0.49340938    -0.90000
O102        O  0.95849007  0.34610774  0.45993004    -0.83200
C103        C  0.92875984  0.32615079  0.47199758     1.12000
O104        O  0.83841727  0.54391313  0.42266665    -0.96300
Zr105      Zr  0.89801052  0.49236423  0.43720479     1.88900
O106        O  0.98400054  0.40985416  0.40075239    -0.72900
O107        O  0.81922439  0.38957938  0.47048352    -0.52200
O108        O  0.84376934  0.46173884  0.39891822    -0.96900
O109        O  0.91682817  0.54863327  0.39578922    -0.54100
O110        O  0.93480476  0.46041478  0.37819662    -0.73400
C111        C  0.96435202  0.43103899  0.37226146     0.98900
O112        O  0.03695247  0.35429848  0.48631425    -0.62300
O113        O  0.03960678  0.54441185  0.56003426    -0.57100
O114        O  0.05170625  0.42818494  0.45892496    -0.93700
O115        O  0.05897979  0.48907716  0.48937685    -0.92200
O116        O  0.01702096  0.46620551  0.63350843    -0.92500
O117        O  0.02830840  0.38726288  0.60188701    -0.91300
C118        C  0.07349506  0.45661815  0.46972515     1.17800
H119        H  0.95978689  0.52290128  0.59492174     0.33700
H120        H  0.95288685  0.36747783  0.54211545     0.44600
H121        H  0.98830276  0.48652091  0.43179120     0.38100
H122        H  0.82969331  0.48709297  0.49104008     0.34600
H123        H  0.95879209  0.38270844  0.65961025     0.26300
H124        H  0.79945573  0.37603498  0.48742566     0.32300
H125        H  0.85428657  0.43237953  0.39694455     0.38200
H126        H  0.01416246  0.45499493  0.66115683     0.32700
H127        H  0.05821781  0.51962293  0.56840420     0.31500
H128        H  0.03729324  0.56776111  0.46224152     0.33200
H129        H  0.90948516  0.54151284  0.36749707     0.32200
H130        H  0.02455073  0.36447658  0.58306473     0.36200
H131        H  0.05854247  0.36527693  0.50371406     0.28900
H132        H  0.80999310  0.57667054  0.57690356     0.33100
H133        H  0.83119387  0.54040224  0.39356463     0.36000
H134        H  0.05770233  0.55991017  0.54310635     0.28600
H135        H  0.02411128  0.33547704  0.50459627     0.41500
H136        H  0.84319339  0.38045233  0.59364219     0.31500
H137        H  0.92107010  0.37609607  0.63029012     0.39100
H138        H  0.94811847  0.54586869  0.39634975     0.31000
H139        H  0.80280871  0.41551436  0.46180582     0.31100
H140        H  0.80634701  0.56966734  0.52960614     0.31300
Zr141      Zr  0.48070387  0.49932538  0.98342726     2.17500
O142        O  0.53464672  0.51247240  0.93432969    -0.51000
O143        O  0.47489154  0.57340492  0.98327692    -0.74200
O144        O  0.45750130  0.49788995  0.91369822    -0.81000
O145        O  0.56812906  0.48745703  0.06397860    -0.82800
O146        O  0.39123335  0.47972195  0.90729154    -0.78400
O147        O  0.55549853  0.49152982  0.99591829    -0.90000
O148        O  0.42397299  0.59886324  0.02716379    -0.76000
O149        O  0.40732880  0.52048314  0.99181273    -0.85500
O150        O  0.47511215  0.52237080  0.05188803    -0.85200
O151        O  0.44731470  0.43933401  0.96754495    -0.71900
O152        O  0.50960731  0.44167320  0.02320141    -0.84100
Zr153      Zr  0.39405518  0.42578844  0.08640094     2.26400
Zr154      Zr  0.37318941  0.46074828  0.97710173     2.06300
Zr155      Zr  0.50279096  0.46488380  0.09214813     2.10000
Zr156      Zr  0.40135092  0.54105640  0.06152151     1.78800
O157        O  0.56303308  0.41843707  0.11577269    -0.92900
O158        O  0.33545845  0.58063301  0.03992854    -0.40700
O159        O  0.42864739  0.48436306  0.10297779    -0.77300
O160        O  0.36547793  0.48330217  0.04652883    -0.96000
O161        O  0.40011787  0.40311752  0.01790643    -0.89300
O162        O  0.46775496  0.40569659  0.07807383    -0.92100
C163        C  0.45240004  0.60297522  0.00079584     1.01600
C164        C  0.57982485  0.49236267  0.02696432     1.14500
C165        C  0.42554789  0.49036844  0.89241392     1.05300
O166        O  0.31560984  0.51203704  0.95684743    -0.91100
O167        O  0.30806046  0.43671738  0.00333605    -0.90000
O168        O  0.32144854  0.41874038  0.06953404    -0.83200
C169        C  0.29686940  0.42434478  0.03840916     1.12000
O170        O  0.52721567  0.37066425  0.95750005    -0.96300
Zr171      Zr  0.47366880  0.38291792  0.00993342     1.88900
O172        O  0.39292604  0.35271897  0.08595091    -0.72900
O173        O  0.35149034  0.41019444  0.92955910    -0.52200
O174        O  0.45319510  0.33904909  0.95542648    -0.96900
O175        O  0.53467024  0.34105679  0.03945532    -0.54100
O176        O  0.44294762  0.32639308  0.04141280    -0.73400
C177        C  0.41376851  0.32279106  0.06742941     0.98900
O178        O  0.34677274  0.44006726  0.14413779    -0.62300
O179        O  0.51780369  0.51887314  0.13887992    -0.57100
O180        O  0.42698004  0.40823284  0.15090701    -0.93700
O181        O  0.48663145  0.43932835  0.15968956    -0.92200
O182        O  0.42640766  0.58207337  0.11642888    -0.92500
O183        O  0.35087761  0.55421498  0.11651546    -0.91300
C184        C  0.45806446  0.41790433  0.17228548     1.17800
H185        H  0.49138748  0.54489908  0.05676864     0.33700
H186        H  0.33602999  0.49103827  0.05264845     0.44600
H187        H  0.47809685  0.38350664  0.09598029     0.38100
H188        H  0.45276480  0.42989339  0.94007498     0.34600
H189        H  0.34036191  0.60948655  0.04353631     0.26300
H190        H  0.33176319  0.42592951  0.91029856     0.32300
H191        H  0.42370361  0.34998351  0.94860232     0.38200
H192        H  0.45420053  0.58917445  0.10746694     0.32700
H193        H  0.49104391  0.52614304  0.15367205     0.31500
H194        H  0.56438274  0.39522634  0.09653624     0.33200
H195        H  0.54162825  0.31873166  0.01961559     0.32200
H196        H  0.35624170  0.53006921  0.13446440     0.36200
H197        H  0.36157916  0.45735336  0.16281874     0.28900
H198        H  0.52264209  0.53658900  0.91836807     0.33100
H199        H  0.53649662  0.39775869  0.95229983     0.36000
H200        H  0.53735926  0.50501104  0.15949065     0.28600
H201        H  0.32257188  0.45887614  0.13368781     0.41500
H202        H  0.29775440  0.49745518  0.93834324     0.31500
H203        H  0.33424034  0.57677638  0.01006213     0.39100
H204        H  0.52368962  0.32744869  0.06327308     0.31000
H205        H  0.37692296  0.40157010  0.91321225     0.31100
H206        H  0.53701216  0.48941116  0.91483775     0.31300
Zr207      Zr  0.37974061  0.01151056  0.49168134     2.17500
O208        O  0.31873238  0.06298243  0.49894861    -0.51000
O209        O  0.38386504  0.01670000  0.41772464    -0.74200
O210        O  0.39879128  0.07995150  0.48670654    -0.81000
O211        O  0.30112715  0.93443156  0.50710520    -0.82800
O212        O  0.46534940  0.08285694  0.51153784    -0.78400
O213        O  0.30910621  0.99506442  0.47696763    -0.90000
O214        O  0.43576340  0.96785747  0.39771477    -0.76000
O215        O  0.45253195  0.99885762  0.47458165    -0.85500
O216        O  0.39011933  0.94187582  0.47167742    -0.85200
O217        O  0.41732233  0.02659610  0.55281883    -0.71900
O218        O  0.36011900  0.97367302  0.54946827    -0.84100
Zr219      Zr  0.48312080  0.90496130  0.57339578     2.26400
Zr220      Zr  0.49065583  0.01318931  0.53531028     2.06300
Zr221      Zr  0.37164657  0.90361792  0.52930233     2.10000
Zr222      Zr  0.46306776  0.92860712  0.45619154     1.78800
O223        O  0.31956157  0.88365415  0.57675929    -0.92900
O224        O  0.52687141  0.94151686  0.42049016    -0.40700
O225        O  0.44514440  0.88926298  0.51313328    -0.77300
O226        O  0.50305672  0.94265972  0.51572049    -0.96000
O227        O  0.47218960  0.97470313  0.59284466    -0.89300
O228        O  0.41009717  0.91718652  0.58988516    -0.92100
C229        C  0.40695923  0.99748585  0.39043104     1.01600
C230        C  0.28675348  0.96708278  0.48759410     1.14500
C231        C  0.43021570  0.09929745  0.49562241     1.05300
O232        O  0.54202707  0.02754824  0.48448254    -0.94300
O233        O  0.55911265  0.98620732  0.56612117    -0.90000
O234        O  0.55222613  0.92324262  0.59163459    -0.83200
C235        C  0.57353595  0.95316134  0.58501395     1.12000
O236        O  0.34887958  0.04754678  0.61801211    -0.96300
Zr237      Zr  0.39957246  0.98677866  0.60974637     1.88900
O238        O  0.48514704  0.90406030  0.64724271    -0.72900
O239        O  0.51250858  0.06153514  0.58518374    -0.52200
O240        O  0.42723305  0.03597852  0.65514425    -0.96900
O241        O  0.33816444  0.96927918  0.64659337    -0.54100
O242        O  0.42994709  0.94859774  0.66879563    -0.73400
C243        C  0.46185536  0.92166039  0.67522050     0.98900
O244        O  0.54004674  0.85063447  0.55958350    -0.62300
O245        O  0.35010732  0.86018309  0.47470841    -0.57100
O246        O  0.46111440  0.83794022  0.58454919    -0.93700
O247        O  0.39821356  0.83416651  0.55178660    -0.92200
O248        O  0.43076594  0.87969278  0.41405566    -0.92500
O249        O  0.51142012  0.86779945  0.44109151    -0.91300
C250        C  0.43076912  0.81834811  0.57238157     1.17800
H251        H  0.37272773  0.93708740  0.44832257     0.33700
H252        H  0.53268895  0.93530031  0.51007226     0.44600
H253        H  0.40312620  0.89960447  0.61173337     0.38100
H254        H  0.41053123  0.05484109  0.56032257     0.34600
H255        H  0.52395288  0.92969646  0.39301000     0.26300
H256        H  0.53190033  0.07744191  0.57027642     0.32300
H257        H  0.45650145  0.02409473  0.66178686     0.38200
H258        H  0.44182169  0.88317609  0.38637935     0.32700
H259        H  0.37674135  0.84457568  0.46545117     0.31500
H260        H  0.31644534  0.85496622  0.56982057     0.33200
H261        H  0.34315930  0.93933931  0.65022378     0.32200
H262        H  0.52720974  0.86145336  0.46685365     0.36200
H263        H  0.52762633  0.83202927  0.54042542     0.28900
H264        H  0.31881049  0.08095909  0.47485072     0.33100
H265        H  0.34331278  0.04973303  0.64758236     0.36000
H266        H  0.33484389  0.83976683  0.48854464     0.28600
H267        H  0.56050732  0.86337850  0.54273698     0.41500
H268        H  0.56237035  0.00248889  0.48331818     0.31500
H269        H  0.52344637  0.97134449  0.41587313     0.39100
H270        H  0.31449317  0.97351307  0.62668445     0.31000
H271        H  0.48698996  0.08104664  0.59005496     0.31100
H272        H  0.32559987  0.08002801  0.52238062     0.31300
C273        C  0.17498392  0.42161449  0.43523458     0.30100
C274        C  0.20538076  0.39634555  0.41325998    -0.36300
C275        C  0.24778155  0.39932928  0.42368146     0.16000
C276        C  0.25924085  0.42494279  0.45391637     0.21900
C277        C  0.22895624  0.45045794  0.47554286    -0.34400
C278        C  0.18667138  0.44792641  0.46483187     0.16000
O279        O  0.13360769  0.42229712  0.43214405    -0.26400
C280        C  0.11862919  0.44987727  0.45965393     0.05700
C281        C  0.15022403  0.46691738  0.48082651    -0.31300
O282        O  0.30031584  0.42121830  0.46040262    -0.23100
C283        C  0.31605925  0.39286531  0.43392953    -0.03100
C284        C  0.28443780  0.37857140  0.40983292    -0.17600
H285        H  0.19657439  0.37527403  0.39028674     0.20400
H286        H  0.23775628  0.47031732  0.49963325     0.18800
H287        H  0.14683916  0.48839598  0.50583905     0.18800
H288        H  0.28753475  0.35499899  0.38684810     0.14600
C289        C  0.42943891  0.37801896  0.26345577     0.30100
C290        C  0.40147893  0.35811547  0.28668258    -0.36300
C291        C  0.39708893  0.37058240  0.32723658     0.16000
C292        C  0.41926209  0.40002995  0.34396332     0.21900
C293        C  0.44763617  0.41972053  0.32076199    -0.34400
C294        C  0.45173528  0.40762916  0.27989933     0.16000
O295        O  0.43306364  0.37537417  0.22384423    -0.26400
C296        C  0.45786346  0.40357007  0.21436106     0.05700
C297        C  0.47129598  0.42423431  0.24814438    -0.31300
O298        O  0.41003937  0.40705656  0.38248723    -0.23100
C299        C  0.38124363  0.38204212  0.39068764    -0.03100
C300        C  0.37201958  0.35861879  0.35708716    -0.17600
H301        H  0.38291167  0.33588290  0.27347739     0.20400
H302        H  0.46411857  0.44381251  0.33331870     0.18800
H303        H  0.48814063  0.45085770  0.24866060     0.18800
H304        H  0.35117126  0.33507347  0.35526584     0.14600
C305        C  0.38804147  0.19981319  0.47461380     0.30100
C306        C  0.35514209  0.23080553  0.46626927    -0.36300
C307        C  0.36716965  0.26954793  0.45928391     0.16000
C308        C  0.40874501  0.27720391  0.45955632     0.21900
C309        C  0.44179784  0.24621926  0.46863484    -0.34400
C310        C  0.42971968  0.20734975  0.47642110     0.16000
O311        O  0.38359179  0.16135649  0.48121677    -0.26400
C312        C  0.42276160  0.14357701  0.48786056     0.05700
C313        C  0.45300361  0.17079238  0.48562491    -0.31300
O314        O  0.41264379  0.31548237  0.45055892    -0.23100
C315        C  0.37293986  0.33291880  0.44526805    -0.03100
C316        C  0.34334447  0.30544485  0.45070686    -0.17600
H317        H  0.32238910  0.22502113  0.46511560     0.20400
H318        H  0.47455210  0.25198244  0.46935022     0.18800
H319        H  0.48695011  0.16444954  0.48927927     0.18800
H320        H  0.30927262  0.31044635  0.44837312     0.14600
C321        C  0.40600708  0.21806556  0.07583389     0.30100
C322        C  0.41787336  0.17643642  0.06908725    -0.36300
C323        C  0.39109933  0.14990006  0.08514325     0.16000
C324        C  0.35501446  0.16312989  0.10641206     0.21900
C325        C  0.34325931  0.20491133  0.11361949    -0.34400
C326        C  0.37019526  0.23159717  0.09756030     0.16000
O327        O  0.42612436  0.24810069  0.06266039    -0.26400
C328        C  0.40316093  0.28149119  0.07629096     0.05700
C329        C  0.36802185  0.27308917  0.09837091    -0.31300
O330        O  0.33481680  0.13264644  0.11858497    -0.23100
C331        C  0.35817785  0.09932508  0.10473102    -0.03100
C332        C  0.39393688  0.10862185  0.08410096    -0.17600
H333        H  0.44597049  0.16547571  0.05225408     0.20400
H334        H  0.31511339  0.21583214  0.13041260     0.18800
H335        H  0.34401438  0.29448582  0.11228632     0.18800
H336        H  0.41918090  0.08807536  0.07100038     0.14600
C337        C  0.38502690  0.02186439  0.21262826     0.30100
C338        C  0.40908777  0.99647054  0.24043033    -0.36300
C339        C  0.40258761  0.00593085  0.28161805     0.16000
C340        C  0.37405585  0.03785465  0.29477902     0.21900
C341        C  0.35029344  0.06356836  0.26680322    -0.34400
C342        C  0.35718533  0.05433548  0.22547343     0.16000
O343        O  0.38563042  0.01808275  0.17276010    -0.26400
C344        C  0.35778682  0.04850857  0.15927987     0.05700
C345        C  0.33962799  0.07244728  0.19112546    -0.31300
O346        O  0.37195861  0.03992039  0.33492458    -0.23100
C347        C  0.39980060  0.00905504  0.34742948    -0.03100
C348        C  0.41989543  0.98712065  0.31552211    -0.17600
H349        H  0.43107729  0.97089445  0.23064105     0.20400
H350        H  0.32778439  0.08873962  0.27653922     0.18800
H351        H  0.31612131  0.09885587  0.18920005     0.18800
H352        H  0.44307138  0.96039844  0.31712479     0.14600
C353        C  0.24737988  0.04673286  0.06851240     0.30100
C354        C  0.21968173  0.04106193  0.03588906    -0.36300
C355        C  0.17991399  0.03009549  0.04644573     0.16000
C356        C  0.16821108  0.02593694  0.08641113     0.21900
C357        C  0.19587907  0.03133839  0.11887545    -0.34400
C358        C  0.23576662  0.04139267  0.10822318     0.16000
O359        O  0.28688434  0.05457273  0.06565714    -0.26400
C360        C  0.30132794  0.05340576  0.10399963     0.05700
C361        C  0.27037020  0.04530064  0.13172653    -0.31300
O362        O  0.12996015  0.01528266  0.08962514    -0.23100
C363        C  0.11683325  0.01200239  0.05129299    -0.03100
C364        C  0.14662954  0.02075575  0.02291536    -0.17600
H365        H  0.22892214  0.04390614  0.00451061     0.20400
H366        H  0.18726240  0.02695018  0.15022146     0.18800
H367        H  0.27292722  0.04079291  0.16427784     0.18800
H368        H  0.14409547  0.02038711  0.99003825     0.14600
C369        C  0.01537668  0.37438520  0.20582374     0.30100
C370        C  0.02172095  0.36188643  0.24663077    -0.36300
C371        C  0.00312222  0.38891619  0.27632990     0.16000
C372        C  0.97990047  0.42561548  0.26650402     0.21900
C373        C  0.97431008  0.43835724  0.22590987    -0.34400
C374        C  0.99270839  0.41135029  0.19637087     0.16000
O375        O  0.02865742  0.35357936  0.17298502    -0.26400
C376        C  0.01382287  0.37729264  0.14184985     0.05700
C377        C  0.99181001  0.41402657  0.15512334    -0.31300
O378        O  0.96352794  0.44529510  0.29870064    -0.23100
C379        C  0.97658191  0.42112418  0.32981886    -0.03100
C380        C  0.00165912  0.38572601  0.31773812    -0.17600
H381        H  0.03921175  0.33283927  0.25462876     0.20400
H382        H  0.95604382  0.46699752  0.21783472     0.18800
H383        H  0.97725215  0.43941133  0.13714964     0.18800
H384        H  0.01572470  0.36080604  0.33663235     0.14600
C385        C  0.19287424  0.39762407  0.03874838     0.30100
C386        C  0.15681101  0.38100398  0.02424535    -0.36300
C387        C  0.12505909  0.37702750  0.05302436     0.16000
C388        C  0.12832713  0.38908938  0.09305971     0.21900
C389        C  0.16428146  0.40535733  0.10756719    -0.34400
C390        C  0.19601004  0.40893597  0.07904354     0.16000
O391        O  0.22723263  0.40288103  0.01783614    -0.26400
C392        C  0.25262363  0.41730921  0.04546779     0.05700
C393        C  0.23456970  0.42185710  0.08383619    -0.31300
O394        O  0.09408783  0.38511229  0.11416333    -0.23100
C395        C  0.06811579  0.37018196  0.08749277    -0.03100
C396        C  0.08621570  0.36379842  0.04906339    -0.17600
H397        H  0.15372398  0.37178356  0.99282533     0.20400
H398        H  0.16725374  0.41476044  0.13895503     0.18800
H399        H  0.24848125  0.43218724  0.11164355     0.18800
H400        H  0.07169042  0.35329909  0.02166362     0.14600
C401        C  0.97616627  0.19795694  0.06190674     0.30100
C402        C  0.96932525  0.23758284  0.04615430    -0.36300
C403        C  0.99066459  0.26678642  0.06598037     0.16000
C404        C  0.01730884  0.25783902  0.09886796     0.21900
C405        C  0.02485263  0.21778093  0.11426564    -0.34400
C406        C  0.00308736  0.18839402  0.09458548     0.16000
O407        O  0.95809889  0.16653465  0.04865142    -0.26400
C408        C  0.97342831  0.13605323  0.07296170     0.05700
C409        C  0.00186743  0.14774850  0.10212765    -0.31300
O410        O  0.03238082  0.29060925  0.11364162    -0.23100
C411        C  0.01474289  0.32115111  0.09016458    -0.03100
C412        C  0.98903345  0.30749165  0.05951073    -0.17600
H413        H  0.94800959  0.24531409  0.02071460     0.20400
H414        H  0.04544282  0.21026599  0.14026560     0.18800
H415        H  0.01893881  0.12914213  0.12540463     0.18800
H416        H  0.97116233  0.32482410  0.03586765     0.14600
C417        C  0.93353185  0.21954156  0.46944756     0.30100
C418        C  0.92721371  0.18065816  0.48376957    -0.36300
C419        C  0.95258182  0.14757491  0.46624764     0.16000
C420        C  0.98187500  0.15233454  0.43658220     0.21900
C421        C  0.98819847  0.19109693  0.42228692    -0.34400
C422        C  0.96303819  0.22409950  0.43983985     0.16000
O423        O  0.91531342  0.25491599  0.48320248    -0.26400
C424        C  0.93353135  0.28237361  0.46207665     0.05700
C425        C  0.96325434  0.26481360  0.43454516    -0.31300
O426        O  0.00158701  0.11729618  0.42390876    -0.23100
C427        C  0.98504170  0.08923692  0.44577528    -0.03100
C428        C  0.95428069  0.10670927  0.47277884    -0.17600
H429        H  0.90459055  0.17651125  0.50731454     0.20400
H430        H  0.01143552  0.19527881  0.39933244     0.18800
H431        H  0.98383148  0.27992847  0.41512194     0.18800
H432        H  0.93480843  0.09166289  0.49334623     0.14600
C433        C  0.18495818  0.00454774  0.45295276     0.30100
C434        C  0.15486322  0.03185442  0.43233752    -0.36300
C435        C  0.11231220  0.02736477  0.43953101     0.16000
C436        C  0.10024473  0.99809130  0.46534008     0.21900
C437        C  0.13035281  0.97031098  0.48551266    -0.34400
C438        C  0.17298801  0.97471484  0.47823387     0.16000
O439        O  0.22629132  0.00482562  0.45222794    -0.26400
C440        C  0.24130884  0.97452877  0.47702858     0.05700
C441        C  0.20953500  0.95451588  0.49400406    -0.31300
O442        O  0.05881236  0.00014024  0.46854495    -0.23100
C443        C  0.04375255  0.03116490  0.44442142    -0.03100
C444        C  0.07594025  0.04892209  0.42523929    -0.17600
H445        H  0.16402194  0.05547421  0.41264018     0.20400
H446        H  0.12115743  0.94732124  0.50596333     0.18800
H447        H  0.21280073  0.92999474  0.51605698     0.18800
H448        H  0.07301763  0.07406430  0.40393099     0.14600
C449        C  0.94424232  0.98649887  0.27411420     0.30100
C450        C  0.96895542  0.97208045  0.30786487    -0.36300
C451        C  0.97280409  0.00033418  0.33919809     0.16000
C452        C  0.95344767  0.03992519  0.33760025     0.21900
C453        C  0.92870116  0.05432601  0.30387614    -0.34400
C454        C  0.92488237  0.02611648  0.27248315     0.16000
O455        O  0.93996071  0.96661617  0.23979539    -0.26400
C456        C  0.91702771  0.99355747  0.21604794     0.05700
C457        C  0.90687270  0.03116551  0.23474145    -0.31300
O458        O  0.96044874  0.06084852  0.37069239    -0.23100
C459        C  0.98462696  0.03436028  0.39404330    -0.03100
C460        C  0.99374268  0.99629357  0.37555708    -0.17600
H461        H  0.98486177  0.94127793  0.30917813     0.20400
H462        H  0.91394461  0.08551622  0.30200314     0.18800
H463        H  0.89206178  0.05916939  0.22113111     0.18800
H464        H  0.01151143  0.96913007  0.38811520     0.14600
C465        C  0.44629273  0.94536995  0.99494175     0.30100
C466        C  0.41776933  0.98116699  0.99512087    -0.36300
C467        C  0.40198189  0.99398887  0.03334896     0.16000
C468        C  0.41380521  0.97334255  0.06883546     0.21900
C469        C  0.44179271  0.93733037  0.06860233    -0.34400
C470        C  0.45724351  0.92434895  0.03045339     0.16000
O471        O  0.46600144  0.92846773  0.96294517    -0.26400
C472        C  0.48974529  0.89587595  0.97803938     0.05700
C473        C  0.48524394  0.89199173  0.02007929    -0.31300
O474        O  0.39682620  0.99166850  0.10132299    -0.23100
C475        C  0.37353450  0.02478057  0.08691415    -0.03100
C476        C  0.37514590  0.02718236  0.04441654    -0.17600
H477        H  0.40897517  0.99809673  0.96753341     0.20400
H478        H  0.45134831  0.92091548  0.09631374     0.18800
H479        H  0.50141121  0.86913718  0.04015411     0.18800
H480        H  0.35986822  0.05085536  0.02472450     0.14600
C481        C  0.48106131  0.77507947  0.98142606     0.30100
C482        C  0.45379457  0.75169059  0.00146191    -0.36300
C483        C  0.46001125  0.70983561  0.99372080     0.16000
C484        C  0.49096978  0.69210328  0.96805880     0.21900
C485        C  0.51828573  0.71563790  0.94789565    -0.34400
C486        C  0.51208390  0.75768192  0.95573661     0.16000
O487        O  0.48031397  0.81476963  0.98411609    -0.26400
C488        C  0.51147779  0.82346396  0.96013947     0.05700
C489        C  0.53236560  0.78887453  0.94151793    -0.31300
O490        O  0.49177661  0.65215583  0.96626454    -0.23100
C491        C  0.46087053  0.64443527  0.99100360    -0.03100
C492        C  0.43996784  0.67918234  0.00884912    -0.17600
H493        H  0.42951583  0.76521287  0.02178920     0.20400
H494        H  0.54276245  0.70210437  0.92779944     0.18800
H495        H  0.55805150  0.78718033  0.92004950     0.18800
H496        H  0.41453580  0.68137245  0.03065096     0.14600
C497        C  0.69084801  0.90279672  0.01186241     0.30100
C498        C  0.64794639  0.91361463  0.01951744    -0.36300
C499        C  0.61976155  0.89425730  0.99545194     0.16000
C500        C  0.63229805  0.86561039  0.96617887     0.21900
C501        C  0.67548848  0.85483478  0.95820382    -0.34400
C502        C  0.70392123  0.87475751  0.98198837     0.16000
O503        O  0.72243458  0.91872807  0.02964394    -0.26400
C504        C  0.75637386  0.90094994  0.01076958     0.05700
C505        C  0.74677465  0.87335099  0.98078921    -0.31300
O506        O  0.59979387  0.85190731  0.94726408    -0.23100
C507        C  0.56588371  0.87244274  0.96452870    -0.03100
C508        C  0.57715507  0.89951539  0.99444241    -0.17600
H509        H  0.63719270  0.93626213  0.04212972     0.20400
H510        H  0.68614530  0.83314624  0.93468364     0.18800
H511        H  0.76824330  0.85569549  0.96035669     0.18800
H512        H  0.55729815  0.92096821  0.01281459     0.14600
C513        C  0.52063886  0.88403972  0.84484806     0.30100
C514        C  0.53769518  0.88824735  0.80589614    -0.36300
C515        C  0.50821886  0.89551668  0.77365915     0.16000
C516        C  0.46507126  0.89932174  0.77959604     0.21900
C517        C  0.44822068  0.89378617  0.81810276    -0.34400
C518        C  0.47756025  0.88565087  0.84994572     0.16000
O519        O  0.54185926  0.87822294  0.87967810    -0.26400
C520        C  0.51180786  0.87562136  0.90731008     0.05700
C521        C  0.47138501  0.87904214  0.89000524    -0.31300
O522        O  0.44313803  0.90886782  0.74597564    -0.23100
C523        C  0.47249044  0.91033391  0.71773389    -0.03100
C524        C  0.51358342  0.90184152  0.73304920    -0.17600
H525        H  0.57143690  0.88644630  0.80111402     0.20400
H526        H  0.41447029  0.89614758  0.82301525     0.18800
H527        H  0.44157035  0.87750360  0.90511089     0.18800
H528        H  0.54300452  0.90190467  0.71685690     0.14600
C529        C  0.89417334  0.47432843  0.00027551     0.30100
C530        C  0.89596720  0.44409561  0.03035008    -0.36300
C531        C  0.93654011  0.42662832  0.04199600     0.16000
C532        C  0.97288318  0.43786543  0.02508659     0.21900
C533        C  0.97108648  0.46780882  0.99463004    -0.34400
C534        C  0.93046538  0.48549033  0.98318263     0.16000
O535        O  0.85962595  0.49584462  0.98620377    -0.26400
C536        C  0.87371268  0.52150628  0.95972145     0.05700
C537        C  0.91776272  0.51600504  0.95647238    -0.31300
O538        O  0.00747766  0.41842198  0.04150628    -0.23100
C539        C  0.99326441  0.39412549  0.06931718    -0.03100
C540        C  0.94916366  0.39818926  0.07081694    -0.17600
H541        H  0.86772302  0.43541322  0.04430447     0.20400
H542        H  0.99936651  0.47723126  0.98139780     0.18800
H543        H  0.93744010  0.53290242  0.93779244     0.18800
H544        H  0.92946267  0.38267672  0.09078155     0.14600
C545        C  0.87631697  0.51759595  0.83692249     0.30100
C546        C  0.89975516  0.49181005  0.80933890    -0.36300
C547        C  0.89184493  0.50006250  0.76795651     0.16000
C548        C  0.86272292  0.53147797  0.75435310     0.21900
C549        C  0.83909382  0.55736956  0.78215262    -0.34400
C550        C  0.84726640  0.54922586  0.82381238     0.16000
O551        O  0.87904652  0.51507202  0.87686653    -0.26400
C552        C  0.85157071  0.54561894  0.89036365     0.05700
C553        C  0.83086216  0.56804128  0.85834603    -0.31300
O554        O  0.86116110  0.53385869  0.71406342    -0.23100
C555        C  0.88971906  0.50352085  0.70188095    -0.03100
C556        C  0.90963916  0.48156045  0.73425236    -0.17600
H557        H  0.92283536  0.46710630  0.81949917     0.20400
H558        H  0.81625199  0.58227475  0.77203508     0.18800
H559        H  0.80688781  0.59403627  0.86029124     0.18800
H560        H  0.93412927  0.45591058  0.73309897     0.14600
C561        C  0.74840544  0.54284017  0.98786562     0.30100
C562        C  0.72262959  0.54050130  0.02232157    -0.36300
C563        C  0.68459278  0.52334138  0.01596680     0.16000
C564        C  0.67294646  0.51004602  0.97813117     0.21900
C565        C  0.69842983  0.51257285  0.94389014    -0.34400
C566        C  0.73632794  0.52932143  0.95031579     0.16000
O567        O  0.78645131  0.55510128  0.98719564    -0.26400
C568        C  0.79906774  0.54932039  0.94866693     0.05700
C569        C  0.76861954  0.53352705  0.92439439    -0.31300
O570        O  0.63599307  0.49610496  0.97828803    -0.23100
C571        C  0.62330925  0.49994885  0.01674621    -0.03100
C572        C  0.65241129  0.51670529  0.04187099    -0.17600
H573        H  0.73191406  0.55070884  0.05205831     0.20400
H574        H  0.68944622  0.50180209  0.91426563     0.18800
H575        H  0.77083892  0.52385122  0.89292975     0.18800
H576        H  0.64940888  0.52459575  0.07378446     0.14600
C577        C  0.90131951  0.71367908  0.98512379     0.30100
C578        C  0.90754893  0.67249104  0.99627234    -0.36300
C579        C  0.88318481  0.64661904  0.97498087     0.16000
C580        C  0.85443963  0.66003876  0.94489664     0.21900
C581        C  0.84763291  0.70152216  0.93415338    -0.34400
C582        C  0.87229740  0.72749710  0.95528046     0.16000
O583        O  0.92129968  0.74297637  0.00068669    -0.26400
C584        C  0.90503260  0.77612694  0.98050598     0.05700
C585        C  0.87425659  0.76836504  0.95196525    -0.31300
O586        O  0.83656591  0.62989803  0.92788902    -0.23100
C587        C  0.85441723  0.59649088  0.94706571    -0.03100
C588        C  0.88309243  0.60568710  0.97732301    -0.17600
H589        H  0.93035653  0.66125122  0.01947620     0.20400
H590        H  0.82530403  0.71264421  0.91050748     0.18800
H591        H  0.85571796  0.78981514  0.93207298     0.18800
H592        H  0.90181427  0.58537383  0.99808319     0.14600
C593        C  0.44167174  0.49374269  0.54219057     0.30100
C594        C  0.41927065  0.49358915  0.50529665    -0.36300
C595        C  0.40815131  0.45571676  0.49272680     0.16000
C596        C  0.41844549  0.42035399  0.51475239     0.21900
C597        C  0.44049560  0.42059205  0.55193796    -0.34400
C598        C  0.45144310  0.45858504  0.56459395     0.16000
O599        O  0.45596081  0.52562654  0.55914942    -0.26400
C600        C  0.47500003  0.51107214  0.59324516     0.05700
C601        C  0.47275101  0.46934424  0.59817745    -0.31300
O602        O  0.40499771  0.38834646  0.49705992    -0.23100
C603        C  0.38571023  0.40334516  0.46315330    -0.03100
C604        C  0.38659921  0.44530598  0.45921411    -0.17600
H605        H  0.41123793  0.52104903  0.48755204     0.20400
H606        H  0.44865702  0.39312501  0.56964764     0.18800
H607        H  0.48486446  0.44974957  0.62302504     0.18800
H608        H  0.37298468  0.46518043  0.43512970     0.14600
C609        C  0.67950455  0.47362260  0.58607937     0.30100
C610        C  0.64241897  0.45915737  0.60018879    -0.36300
C611        C  0.60733612  0.48878436  0.60597918     0.16000
C612        C  0.60837653  0.52953605  0.59769526     0.21900
C613        C  0.64539005  0.54402365  0.58413192    -0.34400
C614        C  0.68047617  0.51468808  0.57902530     0.16000
O615        O  0.71646123  0.45179538  0.57917724    -0.26400
C616        C  0.74129422  0.47961374  0.56815547     0.05700
C617        C  0.72041302  0.51905696  0.56756259    -0.31300
O618        O  0.57158911  0.55162522  0.60326106    -0.23100
C619        C  0.54610883  0.52499209  0.61581354    -0.03100
C620        C  0.56727006  0.48537973  0.61866225    -0.17600
H621        H  0.64100285  0.42715700  0.60630630     0.20400
H622        H  0.64676372  0.57602529  0.57795750     0.18800
H623        H  0.73308406  0.54709438  0.56002092     0.18800
H624        H  0.55496536  0.45769921  0.62772112     0.14600
C625        C  0.48721059  0.50699400  0.72542236     0.30100
C626        C  0.50019805  0.48981742  0.76304770    -0.36300
C627        C  0.46905114  0.49101439  0.79295041     0.16000
C628        C  0.42774868  0.50803218  0.78686876     0.21900
C629        C  0.41456059  0.52476732  0.74883137    -0.34400
C630        C  0.44583975  0.52342824  0.71867879     0.16000
O631        O  0.51147512  0.50988559  0.69346839    -0.26400
C632        C  0.48533588  0.52821540  0.66547056     0.05700
C633        C  0.44405314  0.53720806  0.67958741    -0.31300
O634        O  0.40499646  0.50845296  0.82055798    -0.23100
C635        C  0.43242314  0.49129141  0.84819690    -0.03100
C636        C  0.47238517  0.47968242  0.83243138    -0.17600
H637        H  0.53259854  0.47712095  0.76892114     0.20400
H638        H  0.38250560  0.53866224  0.74336583     0.18800
H639        H  0.41676000  0.55183024  0.66317535     0.18800
H640        H  0.50063216  0.46671894  0.84854772     0.14600
C641        C  0.46287974  0.71917474  0.60757788     0.30100
C642        C  0.48908213  0.68942165  0.62937954    -0.36300
C643        C  0.48425739  0.64872194  0.62033449     0.16000
C644        C  0.45568406  0.63792394  0.59170212     0.21900
C645        C  0.42902828  0.66776146  0.57006701    -0.34400
C646        C  0.43370678  0.70867494  0.57927661     0.16000
O647        O  0.46421126  0.75884164  0.60968131    -0.26400
C648        C  0.43530487  0.77444127  0.58266768     0.05700
C649        C  0.41491931  0.74461770  0.56297661    -0.31300
O650        O  0.45698041  0.59796884  0.58785873    -0.23100
C651        C  0.48686716  0.58268282  0.61434159    -0.03100
C652        C  0.50459704  0.61325070  0.63558267    -0.17600
H653        H  0.51219243  0.69749767  0.65142824     0.20400
H654        H  0.40664265  0.65963687  0.54731068     0.18800
H655        H  0.39154934  0.74867178  0.53869798     0.18800
H656        H  0.52894158  0.60967764  0.65898129     0.14600
C657        C  0.90487880  0.93441985  0.54146488     0.30100
C658        C  0.90651073  0.94627194  0.50065231    -0.36300
C659        C  0.93292593  0.97619897  0.49239121     0.16000
C660        C  0.95609737  0.99334404  0.52211425     0.21900
C661        C  0.95422537  0.98170217  0.56301568    -0.34400
C662        C  0.92799279  0.95153420  0.57124806     0.16000
O663        O  0.88168928  0.90748274  0.55607698    -0.26400
C664        C  0.88971331  0.90720280  0.59599750     0.05700
C665        C  0.91909520  0.93377897  0.60690940    -0.31300
O666        O  0.98010099  0.01947388  0.50721517    -0.23100
C667        C  0.97252355  0.01900530  0.46722413    -0.03100
C668        C  0.94264525  0.99294245  0.45654813    -0.17600
H669        H  0.88866683  0.93289590  0.47696627     0.20400
H670        H  0.97228919  0.99489047  0.58665575     0.18800
H671        H  0.93167007  0.94014769  0.63662691     0.18800
H672        H  0.93029296  0.98635104  0.42677601     0.14600
C673        C  0.89325604  0.70215271  0.59231382     0.30100
C674        C  0.86599584  0.73071608  0.61398000    -0.36300
C675        C  0.87285364  0.77160154  0.60966189     0.16000
C676        C  0.90434831  0.78369412  0.58570288     0.21900
C677        C  0.93207725  0.75496337  0.56433301    -0.34400
C678        C  0.92526079  0.71384569  0.56865012     0.16000
O679        O  0.89126933  0.66260658  0.59099811    -0.26400
C680        C  0.92254641  0.64828192  0.56638852     0.05700
C681        C  0.94505249  0.67880881  0.55163886    -0.31300
O682        O  0.90516652  0.82359318  0.58650975    -0.23100
C683        C  0.87374566  0.83744497  0.61142207    -0.03100
C684        C  0.85279319  0.80601351  0.62680380    -0.17600
H685        H  0.84092768  0.72167589  0.63269985     0.20400
H686        H  0.95707891  0.76404767  0.54557173     0.18800
H687        H  0.97107782  0.67580901  0.53051528     0.18800
H688        H  0.82753673  0.80788024  0.64871169     0.14600
C689        C  0.94347580  0.88954712  0.79146797     0.30100
C690        C  0.93632494  0.86050450  0.76173417    -0.36300
C691        C  0.91411644  0.87552007  0.72674383     0.16000
C692        C  0.89945160  0.91612853  0.72152289     0.21900
C693        C  0.90748369  0.94532622  0.75080884    -0.34400
C694        C  0.93031857  0.93045634  0.78552157     0.16000
O695        O  0.95877734  0.88174272  0.82847914    -0.26400
C696        C  0.95674805  0.91826357  0.84600637     0.05700
C697        C  0.93946560  0.94967792  0.82063793    -0.31300
O698        O  0.87884230  0.92328408  0.68672829    -0.23100
C699        C  0.88105603  0.88689625  0.66865468    -0.03100
C700        C  0.90252545  0.85599265  0.69269132    -0.17600
H701        H  0.94630180  0.82831238  0.76607778     0.20400
H702        H  0.89603135  0.97730140  0.74714637     0.18800
H703        H  0.93022367  0.98125986  0.82866484     0.18800
H704        H  0.91008662  0.82395291  0.68575759     0.14600
C705        C  0.68344026  0.95093133  0.59959516     0.30100
C706        C  0.72422825  0.96039052  0.59071092    -0.36300
C707        C  0.75807806  0.93347323  0.60625857     0.16000
C708        C  0.75246528  0.89991168  0.62951083     0.21900
C709        C  0.71168640  0.89060358  0.63875358    -0.34400
C710        C  0.67779099  0.91721376  0.62278226     0.16000
O711        O  0.64740684  0.96966018  0.58494155    -0.26400
C712        C  0.61821859  0.94756903  0.59883934     0.05700
C713        C  0.63542009  0.91477756  0.62280770    -0.31300
O714        O  0.78863845  0.87816676  0.63960796    -0.23100
C715        C  0.81822927  0.89751500  0.62207129    -0.03100
C716        C  0.80051418  0.93258068  0.60126876    -0.17600
H717        H  0.72925212  0.98606422  0.57167145     0.20400
H718        H  0.70670969  0.86369955  0.65598722     0.18800
H719        H  0.61923877  0.89108095  0.63620598     0.18800
H720        H  0.81633937  0.95439417  0.58446319     0.14600
loop_ 
_geom_bond_atom_site_label_1 
_geom_bond_atom_site_label_2 
_geom_bond_distance 
_geom_bond_site_symmetry_2 
_ccdc_geom_bond_type 
C1          C664   1.528       .  S
C1          C683   1.532       .  S
C1          C699   1.529       .  S
C1          C715   1.538       .  S
C2          C600   1.524       .  S
C2          C619   1.536       .  S
C2          C632   1.522       .  S
C2          C651   1.538       .  S
C3          C536   1.531       .  S
C3          C552   1.538       .  S
C3          C568   1.530       .  S
C3          C587   1.531       .  S
C4          C472   1.534       .  S
C4          C488   1.519       .  S
C4          C507   1.534       .  S
C4          C520   1.524       .  S
C5          C427   1.531       .  S
C5          C443   1.529   1_655  S
C5          C459   1.523       .  S
C5          C667   1.526       .  S
C6          C376   1.537       .  S
C6          C395   1.522       .  S
C6          C411   1.532       .  S
C6          C539   1.534   1_455  S
C7          C331   1.526       .  S
C7          C344   1.534       .  S
C7          C360   1.527       .  S
C7          C475   1.536       .  S
C8          C283   1.533       .  S
C8          C299   1.522       .  S
C8          C315   1.526       .  S
C8          C603   1.525       .  S
Zr9          O10   2.438       .  S
Zr9          O11   2.421       .  S
Zr9          O12   2.408       .  S
Zr9          O15   2.395       .  S
Zr9          O17   2.377       .  S
Zr9          O18   2.371   1_556  S
Zr9          O19   2.397       .  S
Zr9          O20   2.398   1_556  S
O10          H66   0.990       .  S
O10          H74   0.990       .  S
O11          C31   1.281       .  A
O12          C33   1.279       .  A
O13         Zr23   2.466       .  S
O13          C32   1.291       .  A
O14         Zr22   2.453   1_655  S
O14          C33   1.286       .  A
O15          C32   1.278   1_556  A
O16         Zr24   2.438       .  S
O16          C31   1.284   1_554  A
O17         Zr22   2.402   1_655  S
O17         Zr24   2.376   1_556  S
O18         Zr23   2.383       .  S
O18         Zr24   2.371       .  S
O18          H53   0.967       .  S
O19         Zr22   2.400   1_655  S
O19         Zr39   2.392   1_566  S
O19          H56   0.966       .  S
O20         Zr23   2.390       .  S
O20         Zr39   2.395   1_565  S
Zr21         O46   2.448   1_655  S
Zr21         O40   2.442   1_565  S
Zr21         O48   2.406   1_565  S
Zr21         O36   2.397   1_665  S
Zr21         O27   2.399       .  S
Zr21         O28   2.408   1_655  S
Zr21         O29   2.370   1_565  S
Zr21         O30   2.381   1_565  S
Zr22         O41   2.434   1_565  S
Zr22         O34   2.438       .  S
Zr22         O35   2.465   1_556  S
Zr22         O28   2.404   1_556  S
Zr22         O29   2.387   1_466  S
Zr23         O25   2.436       .  S
Zr23         O47   2.437       .  S
Zr23         O49   2.451       .  S
Zr23         O27   2.397       .  S
Zr23         O30   2.398   1_565  S
Zr24         O50   2.438       .  S
Zr24         O51   2.436   1_655  S
Zr24         O26   2.437   1_655  S
Zr24         O27   2.403       .  S
Zr24         O28   2.401   1_655  S
O25          H62   0.990       .  S
O26          H57   0.990       .  S
O26          H71   0.990   1_554  S
O28          H54   0.965       .  S
O29         Zr39   2.370       .  S
O30         Zr39   2.377       .  S
O30          H55   0.966       .  S
C31         C584   1.471       .  S
C32         C504   1.470       .  S
C33         C696   1.460       .  S
O34          H70   0.990       .  S
O35          C37   1.290   1_565  A
O36          C37   1.277       .  A
C37         C363   1.469       .  S
O38         Zr39   2.438   1_556  S
O38          H67   0.990       .  S
Zr39         O42   2.437   1_554  S
Zr39         O43   2.438       .  S
Zr39         O44   2.427       .  S
O40          C45   1.285       .  A
O41          H58   0.990       .  S
O41          H73   0.990   1_455  S
O42          H59   0.990       .  S
O43          H63   0.990       .  S
O43          H72   0.990       .  S
O44          C45   1.283       .  A
C45         C408   1.476       .  S
O46          H65   0.990       .  S
O46          H69   0.990       .  S
O47          H61   0.990       .  S
O47          H68   0.990       .  S
O48          C52   1.279   1_545  A
O49          C52   1.287       .  A
O50          H60   0.990       .  S
O51          H64   0.990       .  S
C52         C456   1.460       .  S
Zr75         O76   2.441       .  S
Zr75         O77   2.451       .  S
Zr75         O78   2.412       .  S
Zr75         O81   2.403       .  S
Zr75         O83   2.375       .  S
Zr75         O84   2.375       .  S
Zr75         O85   2.407       .  S
Zr75         O86   2.406       .  S
O76         H132   0.991       .  S
O76         H140   0.990       .  S
O77          C97   1.286       .  A
O78          C99   1.279       .  A
O79         Zr89   2.472       .  S
O79          C98   1.291       .  A
O80         Zr88   2.462       .  S
O80          C99   1.287       .  A
O81          C98   1.279       .  A
O82         Zr90   2.426       .  S
O82          C97   1.283       .  A
O83         Zr88   2.397       .  S
O83         Zr90   2.382       .  S
O84         Zr89   2.391       .  S
O84         Zr90   2.373       .  S
O84         H119   0.965       .  S
O85         Zr88   2.402       .  S
O85        Zr105   2.404       .  S
O85         H122   0.965       .  S
O86         Zr89   2.394       .  S
O86        Zr105   2.408       .  S
Zr87        O112   2.444   1_655  S
Zr87        O106   2.425       .  S
Zr87        O114   2.405   1_655  S
Zr87        O102   2.415       .  S
Zr87         O93   2.404   1_655  S
Zr87         O94   2.402       .  S
Zr87         O95   2.372       .  S
Zr87         O96   2.380       .  S
Zr88        O107   2.435       .  S
Zr88        O100   2.435       .  S
Zr88        O101   2.450       .  S
Zr88         O94   2.403       .  S
Zr88         O95   2.400       .  S
Zr89         O91   2.435   1_655  S
Zr89        O113   2.435   1_655  S
Zr89        O115   2.464   1_655  S
Zr89         O93   2.401   1_655  S
Zr89         O96   2.392       .  S
Zr90        O116   2.436   1_655  S
Zr90        O117   2.437   1_655  S
Zr90         O92   2.437       .  S
Zr90         O93   2.395   1_655  S
Zr90         O94   2.395       .  S
O91         H128   0.990       .  S
O92         H123   0.990       .  S
O92         H137   0.990       .  S
O94         H120   0.965       .  S
O95        Zr105   2.372       .  S
O96        Zr105   2.370       .  S
O96         H121   0.966       .  S
C97         C555   1.482       .  S
C98         C680   1.478       .  S
C99         C616   1.476       .  S
O100        H136   0.990       .  S
O101        C103   1.287       .  A
O102        C103   1.282       .  A
C103        C424   1.472       .  S
O104       Zr105   2.439       .  S
O104        H133   0.990       .  S
Zr105       O108   2.439       .  S
Zr105       O109   2.439       .  S
Zr105       O110   2.448       .  S
O106        C111   1.282       .  A
O107        H124   0.990       .  S
O107        H139   0.990       .  S
O108        H125   0.990       .  S
O109        H129   0.990       .  S
O109        H138   0.990       .  S
O110        C111   1.286       .  A
C111        C379   1.477       .  S
O112        H131   0.990       .  S
O112        H135   0.990       .  S
O113        H127   0.990       .  S
O113        H134   0.990       .  S
O114        C118   1.279       .  A
O115        C118   1.291       .  A
O116        H126   0.990       .  S
O117        H130   0.990       .  S
C118        C280   1.470       .  S
Zr141       O142   2.445       .  S
Zr141       O143   2.431       .  S
Zr141       O144   2.401       .  S
Zr141       O147   2.396       .  S
Zr141       O149   2.378       .  S
Zr141       O150   2.374   1_556  S
Zr141       O151   2.410       .  S
Zr141       O152   2.398   1_556  S
O142        H198   0.990       .  S
O142        H206   0.991       .  S
O143        C163   1.281   1_556  A
O144        C165   1.276       .  A
O145       Zr155   2.480       .  S
O145        C164   1.291       .  A
O146       Zr154   2.469       .  S
O146        C165   1.288       .  A
O147        C164   1.276   1_556  A
O148       Zr156   2.405       .  S
O148        C163   1.278       .  A
O149       Zr154   2.407       .  S
O149       Zr156   2.390   1_556  S
O150       Zr155   2.391       .  S
O150       Zr156   2.382       .  S
O150        H185   0.968       .  S
O151       Zr154   2.407       .  S
O151       Zr171   2.393   1_556  S
O151        H188   0.965       .  S
O152       Zr155   2.393       .  S
O152       Zr171   2.403       .  S
Zr153       O178   2.445       .  S
Zr153       O172   2.417       .  S
Zr153       O180   2.395       .  S
Zr153       O168   2.409       .  S
Zr153       O159   2.395       .  S
Zr153       O160   2.393       .  S
Zr153       O161   2.372       .  S
Zr153       O162   2.381       .  S
Zr154       O173   2.438       .  S
Zr154       O166   2.433       .  S
Zr154       O167   2.470   1_556  S
Zr154       O160   2.404   1_556  S
Zr154       O161   2.399   1_556  S
Zr155       O157   2.432       .  S
Zr155       O179   2.437       .  S
Zr155       O181   2.456       .  S
Zr155       O159   2.403       .  S
Zr155       O162   2.404       .  S
Zr156       O182   2.437       .  S
Zr156       O183   2.435       .  S
Zr156       O158   2.437       .  S
Zr156       O159   2.390       .  S
Zr156       O160   2.384       .  S
O157        H194   0.990       .  S
O158        H189   0.990       .  S
O158        H203   0.990       .  S
O160        H186   0.966       .  S
O161       Zr171   2.376       .  S
O162       Zr171   2.362       .  S
O162        H187   0.965       .  S
C163        C491   1.463   1_554  S
C164        C571   1.478       .  S
C165        C635   1.472       .  S
O166        H202   0.990       .  S
O167        C169   1.291       .  A
O168        C169   1.281       .  A
C169        C392   1.476       .  S
O170       Zr171   2.436   1_556  S
O170        H199   0.990       .  S
Zr171       O174   2.432   1_554  S
Zr171       O175   2.441       .  S
Zr171       O176   2.443       .  S
O172        C177   1.281       .  A
O173        H190   0.990       .  S
O173        H205   0.990       .  S
O174        H191   0.989       .  S
O175        H195   0.990       .  S
O175        H204   0.990       .  S
O176        C177   1.285       .  A
C177        C328   1.473       .  S
O178        H197   0.990       .  S
O178        H201   0.990       .  S
O179        H193   0.990       .  S
O179        H200   0.990       .  S
O180        C184   1.278       .  A
O181        C184   1.288       .  A
O182        H192   0.990       .  S
O183        H196   0.990       .  S
C184        C296   1.462       .  S
Zr207       O208   2.440       .  S
Zr207       O209   2.441       .  S
Zr207       O210   2.414       .  S
Zr207       O213   2.419   1_545  S
Zr207       O215   2.380   1_545  S
Zr207       O216   2.377   1_545  S
Zr207       O217   2.408       .  S
Zr207       O218   2.402   1_545  S
O208        H264   0.990       .  S
O208        H272   0.990       .  S
O209        C229   1.284   1_545  A
O210        C231   1.280       .  A
O211       Zr221   2.458       .  S
O211        C230   1.289       .  A
O212       Zr220   2.471       .  S
O212        C231   1.290       .  A
O213        C230   1.282       .  A
O214       Zr222   2.415       .  S
O214        C229   1.281       .  A
O215       Zr220   2.399   1_565  S
O215       Zr222   2.382       .  S
O216       Zr221   2.394       .  S
O216       Zr222   2.373       .  S
O216        H251   0.965       .  S
O217       Zr220   2.401       .  S
O217       Zr237   2.398   1_545  S
O217        H254   0.965       .  S
O218       Zr221   2.393       .  S
O218       Zr237   2.399       .  S
Zr219       O244   2.441       .  S
Zr219       O238   2.426       .  S
Zr219       O246   2.428       .  S
Zr219       O234   2.418       .  S
Zr219       O225   2.396       .  S
Zr219       O226   2.400       .  S
Zr219       O227   2.376       .  S
Zr219       O228   2.381       .  S
Zr220       O239   2.438       .  S
Zr220       O232   2.436       .  S
Zr220       O233   2.464   1_545  S
Zr220       O226   2.404   1_545  S
Zr220       O227   2.396   1_545  S
Zr221       O223   2.435       .  S
Zr221       O245   2.437       .  S
Zr221       O247   2.461       .  S
Zr221       O225   2.398       .  S
Zr221       O228   2.394       .  S
Zr222       O248   2.436       .  S
Zr222       O249   2.436       .  S
Zr222       O224   2.438       .  S
Zr222       O225   2.391       .  S
Zr222       O226   2.396       .  S
O223        H260   0.990       .  S
O224        H255   0.990       .  S
O224        H269   0.990       .  S
O226        H252   0.966       .  S
O227       Zr237   2.372       .  S
O228       Zr237   2.374       .  S
O228        H253   0.968       .  S
C229        C347   1.472   1_565  S
C230        C440   1.477       .  S
C231        C312   1.476       .  S
O232        H268   0.990       .  S
O233        C235   1.290       .  A
O234        C235   1.283       .  A
C235        C712   1.480       .  S
O236       Zr237   2.440   1_545  S
O236        H265   0.990       .  S
Zr237       O240   2.437   1_565  S
Zr237       O241   2.438       .  S
Zr237       O242   2.443       .  S
O238        C243   1.282       .  A
O239        H256   0.990       .  S
O239        H271   0.990       .  S
O240        H257   0.990       .  S
O241        H261   0.990       .  S
O241        H270   0.990       .  S
O242        C243   1.285       .  A
C243        C523   1.472       .  S
O244        H263   0.990       .  S
O244        H267   0.990       .  S
O245        H259   0.990       .  S
O245        H266   0.990       .  S
O246        C250   1.284       .  A
O247        C250   1.290       .  A
O248        H258   0.990       .  S
O249        H262   0.990       .  S
C250        C648   1.479       .  S
C273        C278   1.380       .  A
C273        C274   1.406       .  A
C273        O279   1.318       .  A
C274        C275   1.404       .  A
C274        H285   1.082       .  S
C275        C284   1.364       .  A
C275        C276   1.377       .  A
C276        C277   1.402       .  A
C276        O282   1.314       .  A
C277        C278   1.400       .  A
C277        H286   1.082       .  S
C278        C281   1.363       .  A
O279        C280   1.333       .  A
C280        C281   1.389       .  A
C281        H287   1.082       .  S
O282        C283   1.334       .  A
C283        C284   1.399       .  A
C284        H288   1.080       .  S
C289        C294   1.380       .  A
C289        C290   1.400       .  A
C289        O295   1.309       .  A
C290        C291   1.397       .  A
C290        H301   1.083       .  S
C291        C300   1.359       .  A
C291        C292   1.377       .  A
C292        C293   1.405       .  A
C292        O298   1.316       .  A
C293        C294   1.403       .  A
C293        H302   1.082       .  S
C294        C297   1.368       .  A
O295        C296   1.329       .  A
C296        C297   1.391       .  A
C297        H303   1.082       .  S
O298        C299   1.334       .  A
C299        C300   1.395       .  A
C300        H304   1.081       .  S
C305        C310   1.379       .  A
C305        C306   1.401       .  A
C305        O311   1.313       .  A
C306        C307   1.398       .  A
C306        H317   1.082       .  S
C307        C316   1.358       .  A
C307        C308   1.377       .  A
C308        C309   1.409       .  A
C308        O314   1.319       .  A
C309        C310   1.407       .  A
C309        H318   1.082       .  S
C310        C313   1.373       .  A
O311        C312   1.331       .  A
C312        C313   1.395       .  A
C313        H319   1.082       .  S
O314        C315   1.336       .  A
C315        C316   1.396       .  A
C316        H320   1.080       .  S
C321        C326   1.381       .  A
C321        C322   1.400       .  A
C321        O327   1.318       .  A
C322        C323   1.400       .  A
C322        H333   1.082       .  S
C323        C332   1.356       .  A
C323        C324   1.378       .  A
C324        C325   1.407       .  A
C324        O330   1.321       .  A
C325        C326   1.407       .  A
C325        H334   1.082       .  S
C326        C329   1.364       .  A
O327        C328   1.329       .  A
C328        C329   1.395       .  A
C329        H335   1.083       .  S
O330        C331   1.336       .  A
C331        C332   1.396       .  A
C332        H336   1.082       .  S
C337        C342   1.377       .  A
C337        C338   1.400   1_545  A
C337        O343   1.315       .  A
C338        C339   1.400   1_565  A
C338        H349   1.083       .  S
C339        C348   1.356   1_545  A
C339        C340   1.380       .  A
C340        C341   1.405       .  A
C340        O346   1.322       .  A
C341        C342   1.405       .  A
C341        H350   1.082       .  S
C342        C345   1.361       .  A
O343        C344   1.332       .  A
C344        C345   1.399       .  A
C345        H351   1.082       .  S
O346        C347   1.332       .  A
C347        C348   1.391   1_545  A
C348        H352   1.083       .  S
C353        C358   1.377       .  A
C353        C354   1.407       .  A
C353        O359   1.318       .  A
C354        C355   1.405       .  A
C354        H365   1.082       .  S
C355        C364   1.369       .  A
C355        C356   1.380       .  A
C356        C357   1.400       .  A
C356        O362   1.312       .  A
C357        C358   1.398       .  A
C357        H366   1.083       .  S
C358        C361   1.357       .  A
O359        C360   1.335       .  A
C360        C361   1.398       .  A
C361        H367   1.080       .  S
O362        C363   1.330       .  A
C363        C364   1.392       .  A
C364        H368   1.082   1_554  S
C369        C374   1.377   1_455  A
C369        C370   1.408       .  A
C369        O375   1.324       .  A
C370        C371   1.409       .  A
C370        H381   1.082       .  S
C371        C380   1.366       .  A
C371        C372   1.380   1_455  A
C372        C373   1.402       .  A
C372        O378   1.320       .  A
C373        C374   1.402       .  A
C373        H382   1.082       .  S
C374        C377   1.357       .  A
O375        C376   1.337       .  A
C376        C377   1.399   1_455  A
C377        H383   1.082       .  S
O378        C379   1.330       .  A
C379        C380   1.395   1_655  A
C380        H384   1.083       .  S
C385        C390   1.380       .  A
C385        C386   1.408       .  A
C385        O391   1.327       .  A
C386        C387   1.409       .  A
C386        H397   1.082   1_554  S
C387        C396   1.364       .  A
C387        C388   1.380       .  A
C388        C389   1.399       .  A
C388        O394   1.318       .  A
C389        C390   1.400       .  A
C389        H398   1.082       .  S
C390        C393   1.354       .  A
O391        C392   1.333       .  A
C392        C393   1.391       .  A
C393        H399   1.083       .  S
O394        C395   1.332       .  A
C395        C396   1.399       .  A
C396        H400   1.082       .  S
C401        C406   1.380   1_655  A
C401        C402   1.400       .  A
C401        O407   1.316       .  A
C402        C403   1.399       .  A
C402        H413   1.082       .  S
C403        C412   1.356       .  A
C403        C404   1.377   1_655  A
C404        C405   1.410       .  A
C404        O410   1.324       .  A
C405        C406   1.409       .  A
C405        H414   1.082       .  S
C406        C409   1.370       .  A
O407        C408   1.330       .  A
C408        C409   1.396   1_655  A
C409        H415   1.082       .  S
O410        C411   1.337       .  A
C411        C412   1.398   1_455  A
C412        H416   1.082       .  S
C417        C422   1.380       .  A
C417        C418   1.405       .  A
C417        O423   1.323       .  A
C418        C419   1.406       .  A
C418        H429   1.082       .  S
C419        C428   1.361       .  A
C419        C420   1.378       .  A
C420        C421   1.401       .  A
C420        O426   1.319   1_655  A
C421        C422   1.402       .  A
C421        H430   1.082   1_655  S
C422        C425   1.357       .  A
O423        C424   1.332       .  A
C424        C425   1.392       .  A
C425        H431   1.083       .  S
O426        C427   1.333   1_455  A
C427        C428   1.401       .  A
C428        H432   1.082       .  S
C433        C438   1.380   1_545  A
C433        C434   1.405       .  A
C433        O439   1.318       .  A
C434        C435   1.403       .  A
C434        H445   1.082       .  S
C435        C444   1.365       .  A
C435        C436   1.378   1_545  A
C436        C437   1.408       .  A
C436        O442   1.319   1_565  A
C437        C438   1.405       .  A
C437        H446   1.082       .  S
C438        C441   1.369       .  A
O439        C440   1.332   1_545  A
C440        C441   1.394       .  A
C441        H447   1.082       .  S
O442        C443   1.337       .  A
C443        C444   1.396       .  A
C444        H448   1.082       .  S
C449        C454   1.380   1_565  A
C449        C450   1.403       .  A
C449        O455   1.317       .  A
C450        C451   1.402   1_565  A
C450        H461   1.082       .  S
C451        C460   1.360   1_545  A
C451        C452   1.379       .  A
C452        C453   1.403       .  A
C452        O458   1.318       .  A
C453        C454   1.402       .  A
C453        H462   1.082       .  S
C454        C457   1.362       .  A
O455        C456   1.331       .  A
C456        C457   1.390   1_565  A
C457        H463   1.082       .  S
O458        C459   1.333       .  A
C459        C460   1.396   1_545  A
C460        H464   1.082   1_655  S
C465        C470   1.379   1_556  A
C465        C466   1.404       .  A
C465        O471   1.319       .  A
C466        C467   1.404   1_556  A
C466        H477   1.082       .  S
C467        C476   1.360   1_565  A
C467        C468   1.378       .  A
C468        C469   1.400       .  A
C468        O474   1.315       .  A
C469        C470   1.399       .  A
C469        H478   1.082       .  S
C470        C473   1.354       .  A
O471        C472   1.333       .  A
C472        C473   1.397   1_556  A
C473        H479   1.083       .  S
O474        C475   1.332   1_565  A
C475        C476   1.400       .  A
C476        H480   1.082       .  S
C481        C486   1.379       .  A
C481        C482   1.398   1_556  A
C481        O487   1.311       .  A
C482        C483   1.396   1_554  A
C482        H493   1.083       .  S
C483        C492   1.356   1_556  A
C483        C484   1.380       .  A
C484        C485   1.404       .  A
C484        O490   1.318       .  A
C485        C486   1.403       .  A
C485        H494   1.082       .  S
C486        C489   1.364       .  A
O487        C488   1.331       .  A
C488        C489   1.396       .  A
C489        H495   1.082       .  S
O490        C491   1.331       .  A
C491        C492   1.389   1_556  A
C492        H496   1.083       .  S
C497        C502   1.381   1_554  A
C497        C498   1.396       .  A
C497        O503   1.319       .  A
C498        C499   1.399   1_554  A
C498        H509   1.082       .  S
C499        C508   1.348       .  A
C499        C500   1.377       .  A
C500        C501   1.407       .  A
C500        O506   1.326       .  A
C501        C502   1.409       .  A
C501        H510   1.082       .  S
C502        C505   1.361       .  A
O503        C504   1.327       .  A
C504        C505   1.396   1_554  A
C505        H511   1.083       .  S
O506        C507   1.337       .  A
C507        C508   1.399       .  A
C508        H512   1.080   1_556  S
C513        C518   1.379       .  A
C513        C514   1.409       .  A
C513        O519   1.325       .  A
C514        C515   1.409       .  A
C514        H525   1.082       .  S
C515        C524   1.366       .  A
C515        C516   1.381       .  A
C516        C517   1.400       .  A
C516        O522   1.319       .  A
C517        C518   1.400       .  A
C517        H526   1.082       .  S
C518        C521   1.354       .  A
O519        C520   1.336       .  A
C520        C521   1.394       .  A
C521        H527   1.082       .  S
O522        C523   1.329       .  A
C523        C524   1.394       .  A
C524        H528   1.083       .  S
C529        C534   1.379   1_554  A
C529        C530   1.401       .  A
C529        O535   1.317   1_554  A
C530        C531   1.401       .  A
C530        H541   1.082       .  S
C531        C540   1.358       .  A
C531        C532   1.379       .  A
C532        C533   1.404   1_554  A
C532        O538   1.319   1_655  A
C533        C534   1.403       .  A
C533        H542   1.082       .  S
C534        C537   1.359       .  A
O535        C536   1.333       .  A
C536        C537   1.398       .  A
C537        H543   1.083       .  S
O538        C539   1.334   1_455  A
C539        C540   1.396       .  A
C540        H544   1.082       .  S
C545        C550   1.378       .  A
C545        C546   1.402       .  A
C545        O551   1.316       .  A
C546        C547   1.401       .  A
C546        H557   1.082       .  S
C547        C556   1.360       .  A
C547        C548   1.379       .  A
C548        C549   1.411       .  A
C548        O554   1.326       .  A
C549        C550   1.410       .  A
C549        H558   1.082       .  S
C550        C553   1.371       .  A
O551        C552   1.334       .  A
C552        C553   1.401       .  A
C553        H559   1.082       .  S
O554        C555   1.335       .  A
C555        C556   1.392       .  A
C556        H560   1.083       .  S
C561        C566   1.377       .  A
C561        C562   1.413   1_556  A
C561        O567   1.322       .  A
C562        C563   1.410       .  A
C562        H573   1.082       .  S
C563        C572   1.376       .  A
C563        C564   1.379   1_554  A
C564        C565   1.402       .  A
C564        O570   1.313       .  A
C565        C566   1.399       .  A
C565        H574   1.082       .  S
C566        C569   1.362       .  A
O567        C568   1.338       .  A
C568        C569   1.396       .  A
C569        H575   1.082       .  S
O570        C571   1.332   1_556  A
C571        C572   1.396       .  A
C572        H576   1.082       .  S
C577        C582   1.380       .  A
C577        C578   1.400       .  A
C577        O583   1.318   1_556  A
C578        C579   1.401       .  A
C578        H589   1.082   1_556  S
C579        C588   1.354       .  A
C579        C580   1.377       .  A
C580        C581   1.406       .  A
C580        O586   1.323       .  A
C581        C582   1.407       .  A
C581        H590   1.082       .  S
C582        C585   1.363       .  A
O583        C584   1.330   1_554  A
C584        C585   1.394       .  A
C585        H591   1.083       .  S
O586        C587   1.336       .  A
C587        C588   1.399       .  A
C588        H592   1.081       .  S
C593        C598   1.378       .  A
C593        C594   1.400       .  A
C593        O599   1.316       .  A
C594        C595   1.400       .  A
C594        H605   1.082       .  S
C595        C604   1.356       .  A
C595        C596   1.379       .  A
C596        C597   1.403       .  A
C596        O602   1.318       .  A
C597        C598   1.402       .  A
C597        H606   1.082       .  S
C598        C601   1.357       .  A
O599        C600   1.331       .  A
C600        C601   1.398       .  A
C601        H607   1.082       .  S
O602        C603   1.333       .  A
C603        C604   1.395       .  A
C604        H608   1.082       .  S
C609        C614   1.380       .  A
C609        C610   1.408       .  A
C609        O615   1.327       .  A
C610        C611   1.410       .  A
C610        H621   1.082       .  S
C611        C620   1.364       .  A
C611        C612   1.378       .  A
C612        C613   1.400       .  A
C612        O618   1.320       .  A
C613        C614   1.401       .  A
C613        H622   1.082       .  S
C614        C617   1.354       .  A
O615        C616   1.334       .  A
C616        C617   1.391       .  A
C617        H623   1.083       .  S
O618        C619   1.333       .  A
C619        C620   1.402       .  A
C620        H624   1.079       .  S
C625        C630   1.380       .  A
C625        C626   1.399       .  A
C625        O631   1.320       .  A
C626        C627   1.401       .  A
C626        H637   1.083       .  S
C627        C636   1.350       .  A
C627        C628   1.381       .  A
C628        C629   1.407       .  A
C628        O634   1.328       .  A
C629        C630   1.409       .  A
C629        H638   1.082       .  S
C630        C633   1.361       .  A
O631        C632   1.331       .  A
C632        C633   1.397       .  A
C633        H639   1.082       .  S
O634        C635   1.333       .  A
C635        C636   1.390       .  A
C636        H640   1.083       .  S
C641        C646   1.380       .  A
C641        C642   1.404       .  A
C641        O647   1.317       .  A
C642        C643   1.402       .  A
C642        H653   1.082       .  S
C643        C652   1.363       .  A
C643        C644   1.377       .  A
C644        C645   1.410       .  A
C644        O650   1.321       .  A
C645        C646   1.409       .  A
C645        H654   1.082       .  S
C646        C649   1.372       .  A
O647        C648   1.331       .  A
C648        C649   1.396       .  A
C649        H655   1.082       .  S
O650        C651   1.337       .  A
C651        C652   1.396       .  A
C652        H656   1.082       .  S
C657        C662   1.378       .  A
C657        C658   1.400       .  A
C657        O663   1.315       .  A
C658        C659   1.400       .  A
C658        H669   1.082       .  S
C659        C668   1.356       .  A
C659        C660   1.378       .  A
C660        C661   1.402       .  A
C660        O666   1.316   1_565  A
C661        C662   1.402       .  A
C661        H670   1.082       .  S
C662        C665   1.358       .  A
O663        C664   1.333       .  A
C664        C665   1.400       .  A
C665        H671   1.081       .  S
O666        C667   1.333       .  A
C667        C668   1.398   1_545  A
C668        H672   1.081       .  S
C673        C678   1.379       .  A
C673        C674   1.403       .  A
C673        O679   1.315       .  A
C674        C675   1.400       .  A
C674        H685   1.082       .  S
C675        C684   1.361       .  A
C675        C676   1.377       .  A
C676        C677   1.409       .  A
C676        O682   1.321       .  A
C677        C678   1.408       .  A
C677        H686   1.082       .  S
C678        C681   1.372       .  A
O679        C680   1.332       .  A
C680        C681   1.394       .  A
C681        H687   1.082       .  S
O682        C683   1.337       .  A
C683        C684   1.396       .  A
C684        H688   1.081       .  S
C689        C694   1.380       .  A
C689        C690   1.403       .  A
C689        O695   1.319       .  A
C690        C691   1.403       .  A
C690        H701   1.082       .  S
C691        C700   1.359       .  A
C691        C692   1.377       .  A
C692        C693   1.403       .  A
C692        O698   1.319       .  A
C693        C694   1.403       .  A
C693        H702   1.082       .  S
C694        C697   1.361       .  A
O695        C696   1.330       .  A
C696        C697   1.390       .  A
C697        H703   1.083       .  S
O698        C699   1.334       .  A
C699        C700   1.400       .  A
C700        H704   1.082       .  S
C705        C710   1.380       .  A
C705        C706   1.405       .  A
C705        O711   1.324       .  A
C706        C707   1.406       .  A
C706        H717   1.082       .  S
C707        C716   1.360       .  A
C707        C708   1.377       .  A
C708        C709   1.406       .  A
C708        O714   1.323       .  A
C709        C710   1.407       .  A
C709        H718   1.082       .  S
C710        C713   1.361       .  A
O711        C712   1.332       .  A
C712        C713   1.395       .  A
C713        H719   1.083       .  S
O714        C715   1.335       .  A
C715        C716   1.402       .  A
C716        H720   1.082       .  S
