geometry optimzed in LAMMPS
_audit_creation_date              2020-12-01 
_audit_creation_method            'lammps2cif' 
_symmetry_space_group_name_H-M    'P1' 
_symmetry_Int_Tables_number       1 
_symmetry_cell_setting            triclinic 
loop_ 
_symmetry_equiv_pos_as_xyz 
  x,y,z 
_cell_length_a                    43.7734239 
_cell_length_b                    43.6823152508201 
_cell_length_c                    57.55772722741173 
_cell_angle_alpha                 88.65695912038082 
_cell_angle_beta                  90.53445179241751 
_cell_angle_gamma                 120.30183718898857 
loop_ 
_atom_site_label 
_atom_site_type_symbol 
_atom_site_fract_x 
_atom_site_fract_y 
_atom_site_fract_z 
_atom_site_charge 
C1          C  0.32929036  0.16784692  0.85833847     0.87200
C2          C  0.29138732  0.14984407  0.86796146    -0.53100
C3          C  0.28954114  0.14844164  0.89161982     0.10100
C4          C  0.32566905  0.16544012  0.90365689     0.21000
C5          C  0.34847632  0.20438188  0.86939390    -0.53800
C6          C  0.34654679  0.20317452  0.89304947     0.10200
C7          C  0.34581447  0.14748316  0.87012896    -0.53300
C8          C  0.34387627  0.14632259  0.89383186     0.10800
H9          H  0.26802079  0.13870526  0.85701408     0.15300
H10         H  0.32422306  0.16471209  0.92294033     0.01000
H11         H  0.36248965  0.22906629  0.85939318     0.15600
H12         H  0.35754638  0.13455397  0.86100838     0.15400
C13         C  0.33810333  0.16504169  0.68730006     0.87200
C14         C  0.35551183  0.20159095  0.67505053    -0.53100
C15         C  0.35363196  0.20027891  0.65127299     0.10100
C16         C  0.33415242  0.16212480  0.64213910     0.21000
C17         C  0.30007953  0.14536120  0.67811119    -0.53800
C18         C  0.29763830  0.14380968  0.65439951     0.10200
C19         C  0.35583897  0.14610931  0.67643368    -0.53300
C20         C  0.35403247  0.14449082  0.65283754     0.10800
H21         H  0.36870259  0.22610806  0.68454533     0.15300
H22         H  0.33274581  0.16110947  0.62304093     0.01000
H23         H  0.27719450  0.13395947  0.68954671     0.15600
H24         H  0.36913433  0.13507477  0.68649480     0.15400
C25         C  0.16048454  0.32445145  0.18512442     0.87200
C26         C  0.14433718  0.28756664  0.17426615    -0.53100
C27         C  0.14488972  0.28806912  0.15055830     0.10100
C28         C  0.16152721  0.32565777  0.13994275     0.21000
C29         C  0.19792988  0.34550602  0.17466798    -0.53800
C30         C  0.19856114  0.34624745  0.15087426     0.10200
C31         C  0.14009505  0.34108373  0.17395062    -0.53300
C32         C  0.14055371  0.34175666  0.15016839     0.10800
H33         H  0.13355121  0.26307253  0.18437532     0.15300
H34         H  0.16202825  0.32632115  0.12081881     0.01000
H35         H  0.22152798  0.35857674  0.18528859     0.15600
H36         H  0.12642115  0.35107896  0.18415278     0.15400
C37         C  0.16973136  0.34080963  0.35643023     0.87200
C38         C  0.20737103  0.35896695  0.36657366    -0.53100
C39         C  0.20848695  0.35979657  0.39032686     0.10100
C40         C  0.17173396  0.34242809  0.40179575     0.21000
C41         C  0.15073761  0.30382770  0.36847669    -0.53800
C42         C  0.15202632  0.30478446  0.39214019     0.10200
C43         C  0.15214615  0.36012461  0.36690277    -0.53300
C44         C  0.15307257  0.36095472  0.39061793     0.10800
H45         H  0.23099176  0.36965129  0.35584797     0.15300
H46         H  0.17211254  0.34266604  0.42107962     0.01000
H47         H  0.13811683  0.27884409  0.35961297     0.15600
H48         H  0.13940727  0.37151087  0.35644936     0.15400
Zn49       Zn  0.44484435  0.47345664  0.01223387     1.49700
Zn50       Zn  0.49851042  0.00035523  0.05494909     1.49400
Zn51       Zn  0.01502952  0.46779037  0.01113820     1.49100
Zn52       Zn  0.02004054  0.04286313  0.00592052     1.49500
O53         O  0.49459018  0.99608178  0.02111732    -1.83500
O54         O  0.41381797  0.45912875  0.04033906    -0.74100
O55         O  0.02251787  0.47520771  0.06876758    -0.73900
O56         O  0.48005468  0.42707587  0.99178738    -0.73400
O57         O  0.45054117  0.47827172  0.07039106    -0.74100
O58         O  0.43042223  0.42917819  0.99421980    -0.73700
O59         O  0.02960087  0.44863617  0.03855413    -0.74300
O60         O  0.06027393  0.04808021  0.98663666    -0.73700
O61         O  0.02655600  0.05159659  0.06342943    -0.74400
O62         O  0.05915504  0.99699417  0.99209805    -0.73800
O63         O  0.04044542  0.08145380  0.02966301    -0.74300
O64         O  0.48851920  0.05183070  0.98486659    -0.74200
O65         O  0.43480247  0.00616729  0.99237454    -0.74000
C66         C  0.41936393  0.46254339  0.06211074     0.77800
C67         C  0.03228125  0.45492005  0.06019317     0.78300
C68         C  0.44744641  0.41466586  0.98709006     0.77300
C69         C  0.07318583  0.02817952  0.98334885     0.77600
C70         C  0.04124512  0.08069489  0.05177853     0.78800
C71         C  0.45517192  0.03572061  0.98213999     0.77800
Zn72       Zn  0.05207722  0.02949427  0.51027522     1.49700
Zn73       Zn  0.48068299  0.45387376  0.51020972     1.49400
Zn74       Zn  0.50316773  0.50343430  0.55579698     1.49100
Zn75       Zn  0.47744593  0.02503176  0.50898665     1.49500
O76         O  0.50332803  0.50274699  0.52149158    -1.83500
O77         O  0.06487465  0.49825057  0.49234590    -0.74100
O78         O  0.46507120  0.41924308  0.53769997    -0.73900
O79         O  0.05336297  0.02780228  0.56896407    -0.73400
O80         O  0.01460601  0.44648974  0.49051329    -0.74100
O81         O  0.08592235  0.04718947  0.53680179    -0.73700
O82         O  0.47720070  0.45305689  0.56870521    -0.74300
O83         O  0.46363788  0.04614088  0.53436766    -0.73700
O84         O  0.43636384  0.44111730  0.49134388    -0.74400
O85         O  0.47866879  0.02946259  0.56725045    -0.73800
O86         O  0.43188898  0.48939051  0.49408086    -0.74300
O87         O  0.00672810  0.06454893  0.48578936    -0.74200
O88         O  0.06051554  0.07178296  0.49012312    -0.74000
C89         C  0.04736931  0.46629181  0.48572783     0.77800
C90         C  0.46446821  0.42266785  0.55961716     0.78300
C91         C  0.08339491  0.04415585  0.55881676     0.77300
C92         C  0.46476919  0.04523153  0.55642973     0.77600
C93         C  0.41969871  0.45768293  0.48762363     0.78800
C94         C  0.03974499  0.08136009  0.48129979     0.77800
C95         C  0.32718652  0.42066601  0.46146151     0.16600
C96         C  0.29272324  0.41265168  0.45583529    -0.32400
C97         C  0.27879426  0.39640682  0.43454112     0.21000
C98         C  0.29828295  0.38847287  0.41951482     0.03200
C99         C  0.33237145  0.39555745  0.42544319    -0.22100
C100        C  0.34631070  0.41177051  0.44675390     0.12400
S101        S  0.34995207  0.44320233  0.48543379    -0.05800
C102        C  0.38536740  0.44007427  0.47574151    -0.09300
C103        C  0.37957246  0.42225871  0.45511504    -0.25900
S104        S  0.27735167  0.37055830  0.39398166    -0.03100
C105        C  0.24166261  0.37321449  0.40379077    -0.16500
C106        C  0.24615250  0.38735851  0.42572752    -0.14500
H107        H  0.27773299  0.41953854  0.46730304     0.20800
H108        H  0.34764950  0.38938933  0.41373646     0.16900
H109        H  0.39921317  0.41872863  0.44618869     0.19400
H110        H  0.22680088  0.39132279  0.43465615     0.12700
C111        C  0.10532386  0.43429942  0.45765466     0.16600
C112        C  0.13206983  0.42714455  0.45159191    -0.32400
C113        C  0.12593052  0.40522618  0.43256605     0.21000
C114        C  0.09470084  0.39139260  0.42001435     0.03200
C115        C  0.06761197  0.39773773  0.42646871    -0.22100
C116        C  0.07358642  0.41931736  0.44561581     0.12400
S117        S  0.10814975  0.46149050  0.47947084    -0.05800
C118        C  0.06577760  0.45175095  0.47269072    -0.09300
C119        C  0.05054698  0.42876826  0.45442168    -0.25900
S120        S  0.09312696  0.36729674  0.39665984    -0.03100
C121        C  0.13469181  0.37526784  0.40410623    -0.16500
C122        C  0.14879494  0.39551276  0.42373014    -0.14500
H123        H  0.15673877  0.43850871  0.46110465     0.20800
H124        H  0.04309165  0.38666841  0.41680766     0.16900
H125        H  0.02427483  0.41997908  0.44769784     0.19400
H126        H  0.17466728  0.40334475  0.43080860     0.12700
C127        C  0.06565880  0.15926332  0.43824768     0.16600
C128        C  0.06702356  0.18285062  0.42076878    -0.32400
C129        C  0.09800885  0.21612997  0.41890576     0.21000
C130        C  0.12620890  0.22571102  0.43394808     0.03200
C131        C  0.12516237  0.20182381  0.45104623    -0.22100
C132        C  0.09437987  0.16839251  0.45272148     0.12400
S133        S  0.02991077  0.11828580  0.44415492    -0.05800
C134        C  0.05430964  0.11304531  0.46592070    -0.09300
C135        C  0.08820627  0.14175830  0.46840038    -0.25900
S136        S  0.16072328  0.26791445  0.42957949    -0.03100
C137        C  0.13729835  0.27236750  0.40688979    -0.16500
C138        C  0.10444949  0.24268867  0.40309715    -0.14500
H139        H  0.04479257  0.17571496  0.40927498     0.20800
H140        H  0.14726839  0.20908900  0.46267530     0.16900
H141        H  0.10696256  0.14343601  0.48144135     0.19400
H142        H  0.08617004  0.24083787  0.38963127     0.12700
C143        C  0.15181672  0.31051340  0.25226847     0.16600
C144        C  0.14452637  0.29658283  0.27494887    -0.32400
C145        C  0.15728936  0.32050866  0.29316861     0.21000
C146        C  0.17634390  0.35679430  0.28911560     0.03200
C147        C  0.18341120  0.37088008  0.26627101    -0.22100
C148        C  0.17069611  0.34677803  0.24793797     0.12400
S149        S  0.13930870  0.28545802  0.22809977    -0.05800
C150        C  0.15974489  0.32409856  0.21149089    -0.09300
C151        C  0.17510403  0.35478274  0.22451140    -0.25900
S152        S  0.18973481  0.38089661  0.31395449    -0.03100
C153        C  0.16938077  0.34150749  0.32998062    -0.16500
C154        C  0.15313473  0.31158654  0.31630684    -0.14500
H155        H  0.12979891  0.26822763  0.27826162     0.20800
H156        H  0.19835185  0.39922257  0.26294981     0.16900
H157        H  0.18904523  0.38144258  0.21716892     0.19400
H158        H  0.13891044  0.28441828  0.32248916     0.12700
C159        C  0.08956688  0.17377604  0.07740457     0.16600
C160        C  0.10638006  0.21019745  0.08164932    -0.32400
C161        C  0.11378784  0.22075148  0.10484981     0.21000
C162        C  0.10533693  0.19624613  0.12290627     0.03200
C163        C  0.08888317  0.15996540  0.11866776    -0.22100
C164        C  0.08099615  0.14938656  0.09558713     0.12400
S165        S  0.07690086  0.15518732  0.05068400    -0.05800
C166        C  0.05957439  0.11418583  0.06431654    -0.09300
C167        C  0.06384368  0.11523529  0.08819970    -0.25900
S168        S  0.11543256  0.21408564  0.14978666    -0.03100
C169        C  0.13099107  0.25532947  0.13677562    -0.16500
C170        C  0.12860571  0.25468994  0.11265196    -0.14500
H171        H  0.11279604  0.22937791  0.06756604     0.20800
H172        H  0.08190030  0.14075093  0.13279479     0.16900
H173        H  0.05456915  0.09217006  0.09961862     0.19400
H174        H  0.13644103  0.27741394  0.10120021     0.12700
C175        C  0.27390761  0.38896386  0.10587749     0.16600
C176        C  0.29394529  0.40088245  0.08548753    -0.32400
C177        C  0.33072252  0.41846631  0.08765232     0.21000
C178        C  0.34706693  0.42409121  0.10914202     0.03200
C179        C  0.32688826  0.41200061  0.12964801    -0.22100
C180        C  0.28988347  0.39428627  0.12746251     0.12400
S181        S  0.22905010  0.36701935  0.10662527    -0.05800
C182        C  0.23120801  0.36451707  0.13647931    -0.09300
C183        C  0.26549322  0.38030465  0.14516942    -0.25900
S184        S  0.39226678  0.44604484  0.10772603    -0.03100
C185        C  0.38874567  0.44734952  0.07788802    -0.16500
C186        C  0.35439026  0.43165980  0.06973192    -0.14500
H187        H  0.28138503  0.39656251  0.06862933     0.20800
H188        H  0.33942547  0.41614471  0.14649657     0.16900
H189        H  0.27240772  0.38132034  0.16333428     0.19400
H190        H  0.34704936  0.42977733  0.05157327     0.12700
C191        C  0.06848170  0.41757999  0.10694306     0.16600
C192        C  0.07953259  0.40827916  0.12751599    -0.32400
C193        C  0.09535280  0.38738222  0.12562891     0.21000
C194        C  0.09983508  0.37620019  0.10426156     0.03200
C195        C  0.08871546  0.38537480  0.08372629    -0.22100
C196        C  0.07301319  0.40630745  0.08559853     0.12400
S197        S  0.04915450  0.44312285  0.10539579    -0.05800
C198        C  0.04711885  0.43844706  0.07566825    -0.09300
C199        C  0.06079114  0.41815429  0.06759566    -0.25900
S200        S  0.12011190  0.35169414  0.10554717    -0.03100
C201        C  0.12298790  0.35658610  0.13529120    -0.16500
C202        C  0.10846482  0.37615257  0.14352439    -0.14500
H203        H  0.07617187  0.41711572  0.14419855     0.20800
H204        H  0.09235321  0.37677851  0.06702630     0.16900
H205        H  0.06189182  0.41250828  0.04951283     0.19400
H206        H  0.10800815  0.38251938  0.16150138     0.12700
C207        C  0.41777523  0.09106070  0.58182905     0.16600
C208        C  0.39865671  0.10840386  0.58540351    -0.32400
C209        C  0.39111940  0.11230412  0.60840144     0.21000
C210        C  0.40216251  0.09949642  0.62692791     0.03200
C211        C  0.42126253  0.08217967  0.62338165    -0.22100
C212        C  0.42879428  0.07827346  0.60041881     0.12400
S213        S  0.42911439  0.08325235  0.55530346    -0.05800
C214        C  0.44879216  0.06236175  0.56937771    -0.09300
C215        C  0.44670576  0.06183511  0.59340367    -0.25900
S216        S  0.39076287  0.10703187  0.65341115    -0.03100
C217        C  0.37083777  0.12798030  0.63957684    -0.16500
C218        C  0.37308084  0.12861584  0.61549539    -0.14500
H219        H  0.39001019  0.11836171  0.57090576     0.20800
H220        H  0.42985007  0.07217500  0.63789123     0.16900
H221        H  0.45723509  0.04964472  0.60507979     0.19400
H222        H  0.36265672  0.14064992  0.60366004     0.12700
C223        C  0.39414842  0.27491581  0.60418974     0.16600
C224        C  0.40729679  0.29535966  0.58365240    -0.32400
C225        C  0.42209941  0.33222423  0.58511985     0.21000
C226        C  0.42374531  0.34797807  0.60608831     0.03200
C227        C  0.41054721  0.32752698  0.62656849    -0.22100
C228        C  0.39578867  0.29072465  0.62510673     0.12400
S229        S  0.37530386  0.22990025  0.60620981    -0.05800
C230        C  0.36964397  0.23226338  0.63564508    -0.09300
C231        C  0.38179411  0.26651489  0.64315661    -0.25900
S232        S  0.44269777  0.39300777  0.60431362    -0.03100
C233        C  0.44840508  0.39076264  0.57493971    -0.16500
C234        C  0.43618954  0.35665698  0.56714595    -0.14500
H235        H  0.40606069  0.28308906  0.56727524     0.20800
H236        H  0.41178394  0.33978786  0.64295521     0.16900
H237        H  0.38043658  0.27359170  0.66084397     0.19400
H238        H  0.43750154  0.35008866  0.54930001     0.12700
C239        C  0.17648879  0.08732212  0.58492913     0.16600
C240        C  0.21306466  0.10448836  0.58838846    -0.32400
C241        C  0.22529865  0.10938999  0.61130104     0.21000
C242        C  0.20220100  0.09766046  0.63001847     0.03200
C243        C  0.16541328  0.08023826  0.62657726    -0.22100
C244        C  0.15310966  0.07538851  0.60355288     0.12400
S245        S  0.15691074  0.07941260  0.55838292    -0.05800
C246        C  0.11650183  0.05968235  0.57228878    -0.09300
C247        C  0.11842892  0.05932654  0.59639259    -0.25900
S248        S  0.22278451  0.10682607  0.65639163    -0.03100
C249        C  0.26306921  0.12676634  0.64201504    -0.16500
C250        C  0.25999900  0.12593278  0.61798373    -0.14500
H251        H  0.23125543  0.11380939  0.57380586     0.20800
H252        H  0.14724815  0.07106240  0.64116409     0.16900
H253        H  0.09580785  0.04798615  0.60798216     0.19400
H254        H  0.28169152  0.13696358  0.60571786     0.12700
C255        C  0.32362994  0.17999902  0.79157884     0.16600
C256        C  0.31612051  0.18720222  0.76897771    -0.32400
C257        C  0.32935188  0.17709476  0.75031400     0.21000
C258        C  0.34930306  0.16095164  0.75414321     0.03200
C259        C  0.35691249  0.15400029  0.77657991    -0.22100
C260        C  0.34343808  0.16366162  0.79511492     0.12400
S261        S  0.30974803  0.18928935  0.81667761    -0.05800
C262        C  0.33038376  0.17029220  0.83205163    -0.09300
C263        C  0.34746904  0.15807479  0.81808497    -0.25900
S264        S  0.36231242  0.14978264  0.72970644    -0.03100
C265        C  0.34036434  0.16657253  0.71360616    -0.16500
C266        C  0.32429821  0.18064024  0.72701172    -0.14500
H267        H  0.30038911  0.19967991  0.76608893     0.20800
H268        H  0.37227206  0.14112295  0.77946246     0.16900
H269        H  0.36229267  0.14579980  0.82399126     0.19400
H270        H  0.30917766  0.19213471  0.72004358     0.12700
C271        C  0.42809325  0.08536632  0.93874130     0.16600
C272        C  0.42619340  0.10634478  0.92065935    -0.32400
C273        C  0.39639610  0.11035952  0.91990085     0.21000
C274        C  0.36992166  0.09469925  0.93658833     0.03200
C275        C  0.37149635  0.07316403  0.95442334    -0.22100
C276        C  0.40102432  0.06867091  0.95497076     0.12400
S277        S  0.46270952  0.07841644  0.94326824    -0.05800
C278        C  0.44005905  0.05205159  0.96693347    -0.09300
C279        C  0.40750770  0.04900673  0.97101721    -0.25900
S280        S  0.33672024  0.10409481  0.93312969    -0.03100
C281        C  0.35818822  0.12843468  0.90854674    -0.16500
C282        C  0.38962615  0.12947978  0.90361814    -0.14500
H283        H  0.44711210  0.11914588  0.90783093     0.20800
H284        H  0.35072737  0.06062042  0.96736553     0.16900
H285        H  0.39008578  0.03411746  0.98536624     0.19400
H286        H  0.40678688  0.14380340  0.88903698     0.12700
C287        C  0.40386669  0.29118469  0.92330154     0.16600
C288        C  0.43119553  0.32395245  0.93080175    -0.32400
C289        C  0.42295586  0.34134511  0.94760391     0.21000
C290        C  0.38885869  0.32718323  0.95623016     0.03200
C291        C  0.36159383  0.29409872  0.94898192    -0.22100
C292        C  0.37001291  0.27631312  0.93252037     0.11400
S293        S  0.40839430  0.26646210  0.90261873    -0.05800
C294        C  0.36446418  0.23539612  0.90685045    -0.09300
C295        C  0.34731683  0.24385544  0.92336273    -0.25900
S296        S  0.38422595  0.35304414  0.97606470    -0.03100
C297        C  0.42892876  0.38255222  0.97323815    -0.16500
C298        C  0.44613493  0.37295560  0.95746992    -0.14500
H299        H  0.45775066  0.33537692  0.92386328     0.20800
H300        H  0.33503529  0.28269686  0.95590000     0.16900
H301        H  0.31958434  0.22759068  0.92789800     0.19400
H302        H  0.47412962  0.38832655  0.95344828     0.12700
C303        C  0.16252386  0.06043219  0.95385073     0.16600
C304        C  0.19691569  0.06887382  0.94787714    -0.32400
C305        C  0.21421913  0.09461340  0.93025730     0.21000
C306        C  0.19771512  0.11055659  0.91871212     0.03200
C307        C  0.16357641  0.10244394  0.92487298    -0.22100
C308        C  0.14663464  0.07739249  0.94282647     0.12400
S309        S  0.13714691  0.03048458  0.97504201    -0.05800
C310        C  0.10548415  0.04198819  0.96943126    -0.09300
C311        C  0.11402627  0.06714217  0.95184317    -0.25900
S312        S  0.22246252  0.14002585  0.89721693    -0.03100
C313        C  0.25573739  0.13149169  0.90425617    -0.16500
C314        C  0.24786732  0.10697522  0.92221080    -0.14500
H315        H  0.20972689  0.05619470  0.95670011     0.20800
H316        H  0.15087325  0.11531053  0.91617347     0.16900
H317        H  0.09737309  0.07760693  0.94613256     0.19400
H318        H  0.26551305  0.09813709  0.92865774     0.12700
C319        C  0.32929031  0.66784673  0.85833841     0.87200
C320        C  0.29138724  0.64984386  0.86796135    -0.53100
C321        C  0.28954104  0.64844150  0.89161972     0.10100
C322        C  0.32566894  0.66544004  0.90365681     0.21000
C323        C  0.34847625  0.70438171  0.86939379    -0.53800
C324        C  0.34654669  0.70317444  0.89304936     0.10200
C325        C  0.34581442  0.64748302  0.87012894    -0.53300
C326        C  0.34387618  0.64632250  0.89383185     0.10800
H327        H  0.26802089  0.63870505  0.85701403     0.15300
H328        H  0.32422292  0.66471204  0.92294027     0.01000
H329        H  0.36248957  0.72906607  0.85939304     0.15600
H330        H  0.35754641  0.63455386  0.86100839     0.15400
C331        C  0.33810333  0.66504152  0.68730003     0.87200
C332        C  0.35551195  0.70159082  0.67505055    -0.53100
C333        C  0.35363210  0.70027884  0.65127299     0.10100
C334        C  0.33415248  0.66212475  0.64213907     0.21000
C335        C  0.30007954  0.64536114  0.67811114    -0.53800
C336        C  0.29763834  0.64380968  0.65439945     0.10200
C337        C  0.35583890  0.64610910  0.67643363    -0.53300
C338        C  0.35403243  0.64449066  0.65283749     0.10800
H339        H  0.36870267  0.72610775  0.68454533     0.15300
H340        H  0.33274587  0.66110943  0.62304088     0.01000
H341        H  0.27719454  0.63395946  0.68954663     0.15600
H342        H  0.36913422  0.63507448  0.68649476     0.15400
C343        C  0.16048463  0.82445152  0.18512443     0.87200
C344        C  0.14433705  0.78756673  0.17426614    -0.53100
C345        C  0.14488962  0.78806919  0.15055832     0.10100
C346        C  0.16152737  0.82565789  0.13994276     0.21000
C347        C  0.19793003  0.84550588  0.17466802    -0.53800
C348        C  0.19856129  0.84624731  0.15087429     0.10200
C349        C  0.14009542  0.84108409  0.17395062    -0.53300
C350        C  0.14055407  0.84175702  0.15016840     0.10800
H351        H  0.13355085  0.76307239  0.18437539     0.15300
H352        H  0.16202841  0.82632125  0.12081889     0.01000
H353        H  0.22152792  0.85857629  0.18528856     0.15600
H354        H  0.12642164  0.85107954  0.18415283     0.15400
C355        C  0.16973151  0.84080956  0.35643025     0.87200
C356        C  0.20737114  0.85896681  0.36657375    -0.53100
C357        C  0.20848698  0.85979645  0.39032694     0.10100
C358        C  0.17173395  0.84242808  0.40179578     0.21000
C359        C  0.15073765  0.80382767  0.36847674    -0.53800
C360        C  0.15202625  0.80478442  0.39214023     0.10200
C361        C  0.15214638  0.86012466  0.36690270    -0.53300
C362        C  0.15307270  0.86095479  0.39061786     0.10800
H363        H  0.23099189  0.86965107  0.35584810     0.15300
H364        H  0.17211247  0.84266607  0.42107964     0.01000
H365        H  0.13811679  0.77884386  0.35961295     0.15600
H366        H  0.13940764  0.87151095  0.35644926     0.15400
Zn367      Zn  0.44484438  0.97345663  0.01223388     1.49700
Zn368      Zn  0.49851027  0.50035507  0.05494913     1.49400
Zn369      Zn  0.01502952  0.96779039  0.01113815     1.49100
Zn370      Zn  0.02004069  0.54286313  0.00592052     1.49500
O371        O  0.49459013  0.49608175  0.02111737    -1.83500
O372        O  0.41381810  0.95912871  0.04033913    -0.74100
O373        O  0.02251780  0.97520768  0.06876756    -0.73900
O374        O  0.48005464  0.92707579  0.99178735    -0.73400
O375        O  0.45054138  0.97827183  0.07039108    -0.74100
O376        O  0.43042221  0.92917814  0.99421984    -0.73700
O377        O  0.02960105  0.94863632  0.03855409    -0.74300
O378        O  0.06027407  0.54808012  0.98663668    -0.73700
O379        O  0.02655624  0.55159670  0.06342943    -0.74400
O380        O  0.05915515  0.49699410  0.99209820    -0.73800
O381        O  0.04044568  0.58145384  0.02966298    -0.74300
O382        O  0.48851921  0.55183086  0.98486668    -0.74200
O383        O  0.43480249  0.50616737  0.99237456    -0.74000
C384        C  0.41936411  0.96254338  0.06211080     0.77800
C385        C  0.03228135  0.95492016  0.06019314     0.78300
C386        C  0.44744636  0.91466579  0.98709006     0.77300
C387        C  0.07318597  0.52817943  0.98334896     0.77600
C388        C  0.04124537  0.58069498  0.05177850     0.78800
C389        C  0.45517192  0.53572073  0.98214005     0.77800
Zn390      Zn  0.05207708  0.52949414  0.51027525     1.49700
Zn391      Zn  0.48068285  0.95387378  0.51020987     1.49400
Zn392      Zn  0.50316779  0.00343446  0.55579705     1.49100
Zn393      Zn  0.47744591  0.52503164  0.50898666     1.49500
O394        O  0.50332800  0.00274705  0.52149162    -1.83500
O395        O  0.06487477  0.99825079  0.49234575    -0.74100
O396        O  0.46507109  0.91924320  0.53770020    -0.73900
O397        O  0.05336280  0.52780247  0.56896412    -0.73400
O398        O  0.01460617  0.94648991  0.49051309    -0.74100
O399        O  0.08592217  0.54718945  0.53680184    -0.73700
O400        O  0.47720081  0.95305709  0.56870541    -0.74300
O401        O  0.46363784  0.54614070  0.53436767    -0.73700
O402        O  0.43636374  0.94111739  0.49134405    -0.74400
O403        O  0.47866878  0.52946243  0.56725045    -0.73800
O404        O  0.43188898  0.98939069  0.49408088    -0.74300
O405        O  0.00672807  0.56454872  0.48578918    -0.74200
O406        O  0.06051550  0.57178276  0.49012305    -0.74000
C407        C  0.04736946  0.96629206  0.48572762     0.77800
C408        C  0.46446824  0.92266802  0.55961738     0.78300
C409        C  0.08339475  0.54415600  0.55881680     0.77300
C410        C  0.46476917  0.54523136  0.55642974     0.77600
C411        C  0.41969867  0.95768306  0.48762372     0.78800
C412        C  0.03974498  0.58135984  0.48129962     0.77800
C413        C  0.32718651  0.92066606  0.46146158     0.16600
C414        C  0.29272325  0.91265171  0.45583533    -0.32400
C415        C  0.27879425  0.89640675  0.43454122     0.21000
C416        C  0.29828294  0.88847275  0.41951494     0.03200
C417        C  0.33237144  0.89555736  0.42544333    -0.22100
C418        C  0.34631068  0.91177050  0.44675401     0.12400
S419        S  0.34995206  0.94320248  0.48543383    -0.05800
C420        C  0.38536737  0.94007440  0.47574159    -0.09300
C421        C  0.37957248  0.92225876  0.45511514    -0.25900
S422        S  0.27735167  0.87055813  0.39398179    -0.03100
C423        C  0.24166260  0.87321432  0.40379088    -0.16500
C424        C  0.24615249  0.88735838  0.42572761    -0.14500
H425        H  0.27773291  0.91953870  0.46730313     0.20800
H426        H  0.34764954  0.88938916  0.41373657     0.16900
H427        H  0.39921297  0.91872871  0.44618893     0.19400
H428        H  0.22680083  0.89132269  0.43465624     0.12700
C429        C  0.10532401  0.93429976  0.45765435     0.16600
C430        C  0.13206998  0.92714484  0.45159167    -0.32400
C431        C  0.12593063  0.90522643  0.43256580     0.21000
C432        C  0.09470103  0.89139293  0.42001407     0.03200
C433        C  0.06761216  0.89773810  0.42646838    -0.22100
C434        C  0.07358661  0.91931776  0.44561549     0.12400
S435        S  0.10814995  0.96149088  0.47947053    -0.05800
C436        C  0.06577779  0.95175131  0.47269043    -0.09300
C437        C  0.05054717  0.92876866  0.45442137    -0.25900
S438        S  0.09312715  0.86729699  0.39665960    -0.03100
C439        C  0.13469194  0.87526800  0.40410606    -0.16500
C440        C  0.14879508  0.89551296  0.42372997    -0.14500
H441        H  0.15673861  0.93850881  0.46110434     0.20800
H442        H  0.04309191  0.88666882  0.41680735     0.16900
H443        H  0.02427504  0.91997948  0.44769754     0.19400
H444        H  0.17466712  0.90334482  0.43080838     0.12700
C445        C  0.06565900  0.65926285  0.43824728     0.16600
C446        C  0.06702392  0.68285008  0.42076828    -0.32400
C447        C  0.09800895  0.71612967  0.41890554     0.21000
C448        C  0.12620866  0.72571101  0.43394823     0.03200
C449        C  0.12516201  0.70182389  0.45104647    -0.22100
C450        C  0.09437976  0.66839237  0.45272146     0.12400
S451        S  0.02991115  0.61828509  0.44415427    -0.05800
C452        C  0.05430968  0.61304498  0.46592047    -0.09300
C453        C  0.08820608  0.64175822  0.46840044    -0.25900
S454        S  0.16072276  0.76791468  0.42957992    -0.03100
C455        C  0.13729821  0.77236746  0.40688986    -0.16500
C456        C  0.10444967  0.74268836  0.40309691    -0.14500
H457        H  0.04479310  0.67571415  0.40927413     0.20800
H458        H  0.14726779  0.70908931  0.46267585     0.16900
H459        H  0.10696213  0.64343618  0.48144170     0.19400
H460        H  0.08617040  0.74083736  0.38963075     0.12700
C461        C  0.15181682  0.81051339  0.25226847     0.16600
C462        C  0.14452641  0.79658276  0.27494887    -0.32400
C463        C  0.15728958  0.82050863  0.29316862     0.21000
C464        C  0.17634426  0.85679424  0.28911562     0.03200
C465        C  0.18341156  0.87088002  0.26627103    -0.22100
C466        C  0.17069634  0.84677802  0.24793798     0.12400
S467        S  0.13930869  0.78545802  0.22809975    -0.05800
C468        C  0.15974502  0.82409861  0.21149090    -0.09300
C469        C  0.17510426  0.85478273  0.22451143    -0.25900
S470        S  0.18973528  0.88089653  0.31395451    -0.03100
C471        C  0.16938105  0.84150743  0.32998064    -0.16500
C472        C  0.15313489  0.81158644  0.31630686    -0.14500
H473        H  0.12979897  0.76822786  0.27826157     0.20800
H474        H  0.19835232  0.89922257  0.26294984     0.16900
H475        H  0.18904569  0.88144283  0.21716890     0.19400
H476        H  0.13891059  0.78441848  0.32248912     0.12700
C477        C  0.08956693  0.67377616  0.07740455     0.16600
C478        C  0.10638011  0.71019757  0.08164931    -0.32400
C479        C  0.11378781  0.72075160  0.10484980     0.21000
C480        C  0.10533684  0.69624622  0.12290627     0.03200
C481        C  0.08888307  0.65996549  0.11866775    -0.22100
C482        C  0.08099614  0.64938667  0.09558711     0.12400
S483        S  0.07690100  0.65518744  0.05068396    -0.05800
C484        C  0.05957458  0.61418595  0.06431650    -0.09300
C485        C  0.06384375  0.61523541  0.08819967    -0.25900
S486        S  0.11543239  0.71408572  0.14978667    -0.03100
C487        C  0.13099093  0.75532956  0.13677562    -0.16500
C488        C  0.12860562  0.75469003  0.11265198    -0.14500
H489        H  0.11279620  0.72937808  0.06756601     0.20800
H490        H  0.08190012  0.64075100  0.13279477     0.16900
H491        H  0.05456921  0.59217019  0.09961858     0.19400
H492        H  0.13644103  0.77741423  0.10120013     0.12700
C493        C  0.27390783  0.88896305  0.10587757     0.16600
C494        C  0.29394550  0.90088142  0.08548761    -0.32400
C495        C  0.33072274  0.91846572  0.08765246     0.21000
C496        C  0.34706717  0.92409120  0.10914216     0.03200
C497        C  0.32688850  0.91200083  0.12964816    -0.22100
C498        C  0.28988368  0.89428609  0.12746262     0.12400
S499        S  0.22905032  0.86701818  0.10662530    -0.05800
C500        C  0.23120820  0.86451668  0.13647937    -0.09300
C501        C  0.26549341  0.88030471  0.14516953    -0.25900
S502        S  0.39226704  0.94604529  0.10772617    -0.03100
C503        C  0.38874590  0.94734941  0.07788814    -0.16500
C504        C  0.35439045  0.93165916  0.06973201    -0.14500
H505        H  0.28138531  0.89656105  0.06862947     0.20800
H506        H  0.33942568  0.91614544  0.14649672     0.16900
H507        H  0.27240788  0.88132098  0.16333436     0.19400
H508        H  0.34704961  0.92977629  0.05157359     0.12700
C509        C  0.06848196  0.91758027  0.10694305     0.16600
C510        C  0.07953266  0.90827926  0.12751599    -0.32400
C511        C  0.09535317  0.88738260  0.12562889     0.21000
C512        C  0.09983594  0.87620102  0.10426151     0.03200
C513        C  0.08871652  0.88537580  0.08372622    -0.22100
C514        C  0.07301393  0.90630815  0.08559848     0.12400
S515        S  0.04915439  0.94312279  0.10539579    -0.05800
C516        C  0.04711911  0.93844732  0.07566821    -0.09300
C517        C  0.06079187  0.91815498  0.06759562    -0.25900
S518        S  0.12011304  0.85169523  0.10554711    -0.03100
C519        C  0.12298846  0.85658665  0.13529118    -0.16500
C520        C  0.10846500  0.87615278  0.14352439    -0.14500
H521        H  0.07617153  0.91711545  0.14419858     0.20800
H522        H  0.09235460  0.87677983  0.06702625     0.16900
H523        H  0.06189285  0.91250919  0.04951267     0.19400
H524        H  0.10800788  0.88251920  0.16150144     0.12700
C525        C  0.41777507  0.59106039  0.58182904     0.16600
C526        C  0.39865650  0.60840348  0.58540349    -0.32400
C527        C  0.39111928  0.61230387  0.60840140     0.21000
C528        C  0.40216254  0.59949632  0.62692789     0.03200
C529        C  0.42126258  0.58217959  0.62338164    -0.22100
C530        C  0.42879426  0.57827327  0.60041882     0.12400
S531        S  0.42911420  0.58325199  0.55530346    -0.05800
C532        C  0.44879212  0.56236155  0.56937773    -0.09300
C533        C  0.44670578  0.56183498  0.59340368    -0.25900
S534        S  0.39076303  0.60703192  0.65341112    -0.03100
C535        C  0.37083775  0.62798016  0.63957680    -0.16500
C536        C  0.37308069  0.62861555  0.61549535    -0.14500
H537        H  0.39000984  0.61836127  0.57090566     0.20800
H538        H  0.42985025  0.57217499  0.63789129     0.16900
H539        H  0.45723528  0.54964463  0.60507987     0.19400
H540        H  0.36265641  0.64064954  0.60365995     0.12700
C541        C  0.39414861  0.77491592  0.60418986     0.16600
C542        C  0.40729686  0.79535983  0.58365253    -0.32400
C543        C  0.42209955  0.83222440  0.58512005     0.21000
C544        C  0.42374570  0.84797821  0.60608857     0.03200
C545        C  0.41054770  0.82752705  0.62656874    -0.22100
C546        C  0.39578904  0.79072471  0.62510690     0.12400
S547        S  0.37530393  0.72990034  0.60620984    -0.05800
C548        C  0.36964422  0.73226339  0.63564515    -0.09300
C549        C  0.38179454  0.76651489  0.64315675    -0.25900
S550        S  0.44269830  0.89300795  0.60431393    -0.03100
C551        C  0.44840522  0.89076284  0.57493997    -0.16500
C552        C  0.43618952  0.85665716  0.56714615    -0.14500
H553        H  0.40606062  0.78308928  0.56727533     0.20800
H554        H  0.41178461  0.83978792  0.64295554     0.16900
H555        H  0.38043714  0.77359166  0.66084413     0.19400
H556        H  0.43750128  0.85008888  0.54930024     0.12700
C557        C  0.17648871  0.58732293  0.58492913     0.16600
C558        C  0.21306461  0.60448959  0.58838842    -0.32400
C559        C  0.22529862  0.60939061  0.61130100     0.21000
C560        C  0.20220098  0.59766008  0.63001843     0.03200
C561        C  0.16541323  0.58023749  0.62657726    -0.22100
C562        C  0.15310957  0.57538837  0.60355289     0.12400
S563        S  0.15691062  0.57941401  0.55838295    -0.05800
C564        C  0.11650169  0.55968269  0.57228883    -0.09300
C565        C  0.11842881  0.55932616  0.59639263    -0.25900
S566        S  0.22278452  0.60682498  0.65639158    -0.03100
C567        C  0.26306923  0.62676638  0.64201498    -0.16500
C568        C  0.25999902  0.62593371  0.61798367    -0.14500
H569        H  0.23125532  0.61381135  0.57380585     0.20800
H570        H  0.14724814  0.57106091  0.64116406     0.16900
H571        H  0.09580770  0.54798502  0.60798223     0.19400
H572        H  0.28169151  0.63696538  0.60571781     0.12700
C573        C  0.32362994  0.67999880  0.79157880     0.16600
C574        C  0.31612062  0.68720210  0.76897767    -0.32400
C575        C  0.32935189  0.67709455  0.75031398     0.21000
C576        C  0.34930291  0.66095126  0.75414318     0.03200
C577        C  0.35691225  0.65399978  0.77657988    -0.22100
C578        C  0.34343791  0.66366123  0.79511488     0.12400
S579        S  0.30974810  0.68928921  0.81667756    -0.05800
C580        C  0.33038370  0.67029195  0.83205158    -0.09300
C581        C  0.34746885  0.65807436  0.81808493    -0.25900
S582        S  0.36231223  0.64978222  0.72970640    -0.03100
C583        C  0.34036431  0.66657229  0.71360614    -0.16500
C584        C  0.32429827  0.68064009  0.72701170    -0.14500
H585        H  0.30038930  0.69968001  0.76608888     0.20800
H586        H  0.37227159  0.64112236  0.77946241     0.16900
H587        H  0.36229228  0.64579929  0.82399120     0.19400
H588        H  0.30917792  0.69213464  0.72004360     0.12700
C589        C  0.42809324  0.58536645  0.93874141     0.16600
C590        C  0.42619341  0.60634498  0.92065952    -0.32400
C591        C  0.39639612  0.61035970  0.91990099     0.21000
C592        C  0.36992160  0.59469930  0.93658842     0.03200
C593        C  0.37149627  0.57316404  0.95442342    -0.22100
C594        C  0.40102427  0.56867097  0.95497084     0.12400
S595        S  0.46270952  0.57841660  0.94326835    -0.05800
C596        C  0.44005905  0.55205169  0.96693354    -0.09300
C597        C  0.40750763  0.54900672  0.97101727    -0.25900
S598        S  0.33672008  0.60409471  0.93312969    -0.03100
C599        C  0.35818814  0.62843468  0.90854678    -0.16500
C600        C  0.38962616  0.62947992  0.90361827    -0.14500
H601        H  0.44711231  0.61914625  0.90783103     0.20800
H602        H  0.35072721  0.56062031  0.96736557     0.16900
H603        H  0.39008578  0.53411746  0.98536616     0.19400
H604        H  0.40678694  0.64380361  0.88903711     0.12700
C605        C  0.40386645  0.79118492  0.92330121     0.16600
C606        C  0.43119523  0.82395289  0.93080124    -0.32400
C607        C  0.42295564  0.84134528  0.94760366     0.21000
C608        C  0.38885869  0.82718298  0.95623033     0.03200
C609        C  0.36159389  0.79409823  0.94898230    -0.22100
C610        C  0.37001294  0.77631292  0.93252046     0.11400
S611        S  0.40839395  0.76646263  0.90261812    -0.05800
C612        C  0.36446408  0.73539614  0.90685030    -0.09300
C613        C  0.34731690  0.74385509  0.92336295    -0.25900
S614        S  0.38422602  0.85304362  0.97606513    -0.03100
C615        C  0.42892866  0.88255217  0.97323814    -0.16500
C616        C  0.44613469  0.87295590  0.95746955    -0.14500
H617        H  0.45775007  0.83537763  0.92386248     0.20800
H618        H  0.33503582  0.78269616  0.95590064     0.16900
H619        H  0.31958476  0.72759011  0.92789852     0.19400
H620        H  0.47412922  0.88832715  0.95344759     0.12700
C621        C  0.16252406  0.56043222  0.95385092     0.16600
C622        C  0.19691603  0.56887414  0.94787744    -0.32400
C623        C  0.21421918  0.59461333  0.93025733     0.21000
C624        C  0.19771480  0.61055584  0.91871181     0.03200
C625        C  0.16357593  0.60244286  0.92487253    -0.22100
C626        C  0.14663445  0.57739183  0.94282628     0.12400
S627        S  0.13714745  0.53048511  0.97504254    -0.05800
C628        C  0.10548429  0.54198802  0.96943138    -0.09300
C629        C  0.11402603  0.56714141  0.95184294    -0.25900
S630        S  0.22246198  0.64002483  0.89721644    -0.03100
C631        C  0.25573725  0.63149142  0.90425603    -0.16500
C632        C  0.24786748  0.60697541  0.92221092    -0.14500
H633        H  0.20972749  0.55619563  0.95670066     0.20800
H634        H  0.15087249  0.61530892  0.91617275     0.16900
H635        H  0.09737262  0.57760568  0.94613209     0.19400
H636        H  0.26551341  0.59813782  0.92865809     0.12700
C637        C  0.82929031  0.16784679  0.85833847     0.87200
C638        C  0.79138727  0.14984398  0.86796144    -0.53100
C639        C  0.78954110  0.14844167  0.89161982     0.10100
C640        C  0.82566901  0.16544023  0.90365688     0.21000
C641        C  0.84847628  0.20438183  0.86939380    -0.53800
C642        C  0.84654676  0.20317459  0.89304939     0.10200
C643        C  0.84581441  0.14748309  0.87012903    -0.53300
C644        C  0.84387620  0.14632262  0.89383194     0.10800
H645        H  0.76802089  0.13870513  0.85701413     0.15300
H646        H  0.82422303  0.16471229  0.92294035     0.01000
H647        H  0.86248945  0.22906596  0.85939310     0.15600
H648        H  0.85754636  0.13455384  0.86100847     0.15400
C649        C  0.83810338  0.16504147  0.68730008     0.87200
C650        C  0.85551196  0.20159073  0.67505057    -0.53100
C651        C  0.85363213  0.20027875  0.65127303     0.10100
C652        C  0.83415254  0.16212463  0.64213912     0.21000
C653        C  0.80007960  0.14536104  0.67811119    -0.53800
C654        C  0.79763840  0.14380955  0.65439951     0.10200
C655        C  0.85583899  0.14610905  0.67643370    -0.53300
C656        C  0.85403252  0.14449059  0.65283757     0.10800
H657        H  0.86870275  0.22610789  0.68454543     0.15300
H658        H  0.83274594  0.16110929  0.62304095     0.01000
H659        H  0.77719453  0.13395936  0.68954671     0.15600
H660        H  0.86913428  0.13507448  0.68649482     0.15400
C661        C  0.66048462  0.32445151  0.18512441     0.87200
C662        C  0.64433698  0.28756670  0.17426612    -0.53100
C663        C  0.64488957  0.28806919  0.15055828     0.10100
C664        C  0.66152738  0.32565788  0.13994275     0.21000
C665        C  0.69793001  0.34550583  0.17466801    -0.53800
C666        C  0.69856131  0.34624726  0.15087429     0.10200
C667        C  0.64009544  0.34108412  0.17395060    -0.53300
C668        C  0.64055413  0.34175705  0.15016836     0.10800
H669        H  0.63355073  0.26307240  0.18437535     0.15300
H670        H  0.66202844  0.32632124  0.12081881     0.01000
H671        H  0.72152803  0.35857630  0.18528861     0.15600
H672        H  0.62642174  0.35107953  0.18415275     0.15400
C673        C  0.66973146  0.34080964  0.35643021     0.87200
C674        C  0.70737113  0.35896689  0.36657367    -0.53100
C675        C  0.70848701  0.35979650  0.39032687     0.10100
C676        C  0.67173401  0.34242811  0.40179572     0.21000
C677        C  0.65073765  0.30382773  0.36847667    -0.53800
C678        C  0.65202630  0.30478446  0.39214016     0.10200
C679        C  0.65214633  0.36012469  0.36690272    -0.53300
C680        C  0.65307270  0.36095481  0.39061787     0.10800
H681        H  0.73099178  0.36965113  0.35584803     0.15300
H682        H  0.67211256  0.34266607  0.42107966     0.01000
H683        H  0.63811679  0.27884393  0.35961288     0.15600
H684        H  0.63940743  0.37151107  0.35644924     0.15400
Zn685      Zn  0.94484441  0.47345674  0.01223392     1.49700
Zn686      Zn  0.99851034  0.00035511  0.05494910     1.49400
Zn687      Zn  0.51502957  0.46779049  0.01113819     1.49100
Zn688      Zn  0.52004059  0.04286315  0.00592047     1.49500
O689        O  0.99459013  0.99608171  0.02111732    -1.83500
O690        O  0.91381814  0.45912885  0.04033917    -0.74100
O691        O  0.52251765  0.47520758  0.06876760    -0.73900
O692        O  0.98005458  0.42707583  0.99178736    -0.73400
O693        O  0.95054142  0.47827191  0.07039113    -0.74100
O694        O  0.93042219  0.42917827  0.99421984    -0.73700
O695        O  0.52960111  0.44863643  0.03855410    -0.74300
O696        O  0.56027405  0.04808020  0.98663669    -0.73700
O697        O  0.52655601  0.05159671  0.06342937    -0.74400
O698        O  0.55915514  0.99699417  0.99209818    -0.73800
O699        O  0.54044542  0.08145389  0.02966293    -0.74300
O700        O  0.98851914  0.05183081  0.98486673    -0.74200
O701        O  0.93480243  0.00616724  0.99237447    -0.74000
C702        C  0.91936416  0.46254350  0.06211085     0.77800
C703        C  0.53228129  0.45492014  0.06019317     0.78300
C704        C  0.94744632  0.41466589  0.98709005     0.77300
C705        C  0.57318596  0.02817951  0.98334896     0.77600
C706        C  0.54124508  0.08069500  0.05177846     0.78800
C707        C  0.95517187  0.03572065  0.98214003     0.77800
Zn708      Zn  0.55207710  0.02949418  0.51027527     1.49700
Zn709      Zn  0.98068287  0.45387367  0.51020981     1.49400
Zn710      Zn  0.00316767  0.50343433  0.55579699     1.49100
Zn711      Zn  0.97744593  0.02503161  0.50898669     1.49500
O712        O  0.00332796  0.50274692  0.52149158    -1.83500
O713        O  0.56487471  0.49825079  0.49234579    -0.74100
O714        O  0.96507096  0.41924307  0.53770014    -0.73900
O715        O  0.55336297  0.02780262  0.56896414    -0.73400
O716        O  0.51460610  0.44648993  0.49051310    -0.74100
O717        O  0.58592228  0.04718952  0.53680182    -0.73700
O718        O  0.97720065  0.45305696  0.56870535    -0.74300
O719        O  0.96363791  0.04614062  0.53436775    -0.73700
O720        O  0.93636382  0.44111723  0.49134387    -0.74400
O721        O  0.97866885  0.02946231  0.56725052    -0.73800
O722        O  0.93188891  0.48939041  0.49408088    -0.74300
O723        O  0.50672814  0.06454895  0.48578925    -0.74200
O724        O  0.56051551  0.07178284  0.49012308    -0.74000
C725        C  0.54736940  0.46629207  0.48572764     0.77800
C726        C  0.96446808  0.42266789  0.55961733     0.78300
C727        C  0.58339490  0.04415612  0.55881679     0.77300
C728        C  0.96476923  0.04523125  0.55642981     0.77600
C729        C  0.91969868  0.45768283  0.48762364     0.78800
C730        C  0.53974504  0.08136002  0.48129969     0.77800
C731        C  0.82718654  0.42066590  0.46146150     0.16600
C732        C  0.79272329  0.41265160  0.45583525    -0.32400
C733        C  0.77879432  0.39640666  0.43454112     0.21000
C734        C  0.79828295  0.38847260  0.41951486     0.03200
C735        C  0.83237143  0.39555714  0.42544326    -0.22100
C736        C  0.84631068  0.41177029  0.44675394     0.12400
S737        S  0.84995210  0.44320233  0.48543374    -0.05800
C738        C  0.88536738  0.44007417  0.47574152    -0.09300
C739        C  0.87957245  0.42225850  0.45511508    -0.25900
S740        S  0.77735167  0.37055803  0.39398171    -0.03100
C741        C  0.74166267  0.37321434  0.40379077    -0.16500
C742        C  0.74615256  0.38735841  0.42572752    -0.14500
H743        H  0.77773301  0.41953859  0.46730302     0.20800
H744        H  0.84764945  0.38938891  0.41373655     0.16900
H745        H  0.89921292  0.41872838  0.44618888     0.19400
H746        H  0.72680116  0.39132275  0.43465604     0.12700
C747        C  0.60532407  0.43429986  0.45765439     0.16600
C748        C  0.63207007  0.42714501  0.45159165    -0.32400
C749        C  0.62593068  0.40522650  0.43256585     0.21000
C750        C  0.59470100  0.39139286  0.42001418     0.03200
C751        C  0.56761212  0.39773798  0.42646853    -0.22100
C752        C  0.57358658  0.41931770  0.44561559     0.12400
S753        S  0.60814998  0.46149105  0.47947051    -0.05800
C754        C  0.56577774  0.45175131  0.47269047    -0.09300
C755        C  0.55054712  0.42876855  0.45442148    -0.25900
S756        S  0.59312707  0.36729684  0.39665975    -0.03100
C757        C  0.63469193  0.37526795  0.40410614    -0.16500
C758        C  0.64879511  0.39551301  0.42373000    -0.14500
H759        H  0.65673888  0.43850916  0.46110429     0.20800
H760        H  0.54309175  0.38666857  0.41680752     0.16900
H761        H  0.52427485  0.41997923  0.44769766     0.19400
H762        H  0.67466730  0.40334497  0.43080841     0.12700
C763        C  0.56565902  0.15926306  0.43824738     0.16600
C764        C  0.56702382  0.18285031  0.42076841    -0.32400
C765        C  0.59800897  0.21612981  0.41890556     0.21000
C766        C  0.62620882  0.22571103  0.43394808     0.03200
C767        C  0.62516225  0.20182390  0.45104629    -0.22100
C768        C  0.59437990  0.16839246  0.45272140     0.12400
S769        S  0.52991108  0.11828541  0.44415450    -0.05800
C770        C  0.55430977  0.11304517  0.46592054    -0.09300
C771        C  0.58820627  0.14175832  0.46840038    -0.25900
S772        S  0.66072305  0.26791458  0.42957963    -0.03100
C773        C  0.63729829  0.27236749  0.40688976    -0.16500
C774        C  0.60444960  0.24268851  0.40309695    -0.14500
H775        H  0.54479305  0.17571452  0.40927449     0.20800
H776        H  0.64726807  0.20908924  0.46267552     0.16900
H777        H  0.60696237  0.14343620  0.48144149     0.19400
H778        H  0.58617024  0.24083760  0.38963093     0.12700
C779        C  0.65181675  0.31051346  0.25226845     0.16600
C780        C  0.64452628  0.29658285  0.27494886    -0.32400
C781        C  0.65728938  0.32050870  0.29316860     0.21000
C782        C  0.67634409  0.35679432  0.28911560     0.03200
C783        C  0.68341145  0.37088012  0.26627101    -0.22100
C784        C  0.67069628  0.34677808  0.24793796     0.12400
S785        S  0.63930866  0.28545808  0.22809975    -0.05800
C786        C  0.65974498  0.32409863  0.21149089    -0.09300
C787        C  0.67510426  0.35478281  0.22451140    -0.25900
S788        S  0.68973518  0.38089661  0.31395448    -0.03100
C789        C  0.66938092  0.34150750  0.32998061    -0.16500
C790        C  0.65313470  0.31158655  0.31630682    -0.14500
H791        H  0.62979882  0.26822788  0.27826157     0.20800
H792        H  0.69835220  0.39922258  0.26294983     0.16900
H793        H  0.68904558  0.38144265  0.21716893     0.19400
H794        H  0.63891025  0.28441831  0.32248915     0.12700
C795        C  0.58956657  0.17377617  0.07740450     0.16600
C796        C  0.60637965  0.21019755  0.08164927    -0.32400
C797        C  0.61378757  0.22075162  0.10484973     0.21000
C798        C  0.60533687  0.19624626  0.12290619     0.03200
C799        C  0.58888321  0.15996553  0.11866766    -0.22100
C800        C  0.58099607  0.14938670  0.09558704     0.12400
S801        S  0.57690043  0.15518742  0.05068394    -0.05800
C802        C  0.55957425  0.11418597  0.06431646    -0.09300
C803        C  0.56384367  0.11523541  0.08819962    -0.25900
S804        S  0.61543260  0.21408576  0.14978658    -0.03100
C805        C  0.63099084  0.25532957  0.13677557    -0.16500
C806        C  0.62860530  0.25469003  0.11265193    -0.14500
H807        H  0.61279552  0.22937814  0.06756589     0.20800
H808        H  0.58190050  0.14075107  0.13279468     0.16900
H809        H  0.55456938  0.09217035  0.09961845     0.19400
H810        H  0.63644048  0.27741420  0.10120010     0.12700
C811        C  0.77390787  0.38896309  0.10587759     0.16600
C812        C  0.79394556  0.40088154  0.08548764    -0.32400
C813        C  0.83072278  0.41846575  0.08765246     0.21000
C814        C  0.84706721  0.42409109  0.10914219     0.03200
C815        C  0.82688852  0.41200066  0.12964818    -0.22100
C816        C  0.78988371  0.39428599  0.12746264     0.12400
S817        S  0.72905036  0.36701827  0.10662531    -0.05800
C818        C  0.73120822  0.36451660  0.13647937    -0.09300
C819        C  0.76549342  0.38030454  0.14516954    -0.25900
S820        S  0.89226707  0.44604516  0.10772619    -0.03100
C821        C  0.88874592  0.44734946  0.07788816    -0.16500
C822        C  0.85439051  0.43165926  0.06973206    -0.14500
H823        H  0.78138533  0.39656129  0.06862944     0.20800
H824        H  0.83942570  0.41614515  0.14649675     0.16900
H825        H  0.77240787  0.38132069  0.16333435     0.19400
H826        H  0.84704956  0.42977647  0.05157337     0.12700
C827        C  0.56848173  0.41758004  0.10694306     0.16600
C828        C  0.57953242  0.40827900  0.12751599    -0.32400
C829        C  0.59535316  0.38738257  0.12562888     0.21000
C830        C  0.59983617  0.37620122  0.10426146     0.03200
C831        C  0.58871678  0.38537605  0.08372619    -0.22100
C832        C  0.57301395  0.40630817  0.08559846     0.12400
S833        S  0.54915395  0.44312238  0.10539583    -0.05800
C834        C  0.54711897  0.43844721  0.07566823    -0.09300
C835        C  0.56079191  0.41815505  0.06759562    -0.25900
S836        S  0.62011339  0.35169556  0.10554704    -0.03100
C837        C  0.62298856  0.35658673  0.13529115    -0.16500
C838        C  0.60846494  0.37615269  0.14352436    -0.14500
H839        H  0.57617110  0.41711502  0.14419863     0.20800
H840        H  0.59235504  0.37678023  0.06702617     0.16900
H841        H  0.56189309  0.41250943  0.04951260     0.19400
H842        H  0.60800762  0.38251895  0.16150152     0.12700
C843        C  0.91777528  0.09106042  0.58182914     0.16600
C844        C  0.89865679  0.10840359  0.58540359    -0.32400
C845        C  0.89111946  0.11230383  0.60840152     0.21000
C846        C  0.90216251  0.09949610  0.62692800     0.03200
C847        C  0.92126249  0.08217930  0.62338174    -0.22100
C848        C  0.92879430  0.07827312  0.60041891     0.12400
S849        S  0.92911447  0.08325210  0.55530354    -0.05800
C850        C  0.94879222  0.06236146  0.56937781    -0.09300
C851        C  0.94670577  0.06183479  0.59340376    -0.25900
S852        S  0.89076288  0.10703159  0.65341123    -0.03100
C853        C  0.87083782  0.12798004  0.63957691    -0.16500
C854        C  0.87308090  0.12861557  0.61549545    -0.14500
H855        H  0.89001028  0.11836147  0.57090583     0.20800
H856        H  0.92985000  0.07217454  0.63789137     0.16900
H857        H  0.95723517  0.04964429  0.60507997     0.19400
H858        H  0.86265687  0.14064960  0.60366015     0.12700
C859        C  0.89414842  0.27491578  0.60418984     0.16600
C860        C  0.90729661  0.29535968  0.58365252    -0.32400
C861        C  0.92209932  0.33222425  0.58512001     0.21000
C862        C  0.92374554  0.34797809  0.60608854     0.03200
C863        C  0.91054765  0.32752695  0.62656873    -0.22100
C864        C  0.89578900  0.29072460  0.62510690     0.12400
S865        S  0.87530360  0.22990018  0.60620982    -0.05800
C866        C  0.86964414  0.23226327  0.63564516    -0.09300
C867        C  0.88179459  0.26651480  0.64315677    -0.25900
S868        S  0.94269816  0.39300783  0.60431389    -0.03100
C869        C  0.94840502  0.39076269  0.57493991    -0.16500
C870        C  0.93618928  0.35665702  0.56714612    -0.14500
H871        H  0.90606028  0.28308905  0.56727521     0.20800
H872        H  0.91178462  0.33978778  0.64295548     0.16900
H873        H  0.88043736  0.27359159  0.66084412     0.19400
H874        H  0.93750102  0.35008866  0.54930006     0.12700
C875        C  0.67648889  0.08732310  0.58492913     0.16600
C876        C  0.71306480  0.10448976  0.58838844    -0.32400
C877        C  0.72529878  0.10939067  0.61130103     0.21000
C878        C  0.70220111  0.09766007  0.63001845     0.03200
C879        C  0.66541336  0.08023750  0.62657725    -0.22100
C880        C  0.65310974  0.07538848  0.60355287     0.12400
S881        S  0.65691081  0.07941420  0.55838293    -0.05800
C882        C  0.61650186  0.05968282  0.57228880    -0.09300
C883        C  0.61842899  0.05932626  0.59639260    -0.25900
S884        S  0.72278459  0.10682485  0.65639161    -0.03100
C885        C  0.76306933  0.12676627  0.64201502    -0.16500
C886        C  0.75999914  0.12593369  0.61798372    -0.14500
H887        H  0.73125547  0.11381152  0.57380592     0.20800
H888        H  0.64724826  0.07106082  0.64116404     0.16900
H889        H  0.59580782  0.04798504  0.60798222     0.19400
H890        H  0.78169176  0.13696542  0.60571781     0.12700
C891        C  0.82362985  0.17999870  0.79157882     0.16600
C892        C  0.81612043  0.18720185  0.76897768    -0.32400
C893        C  0.82935185  0.17709444  0.75031400     0.21000
C894        C  0.84930308  0.16095137  0.75414322     0.03200
C895        C  0.85691248  0.15400004  0.77657993    -0.22100
C896        C  0.84343802  0.16366132  0.79511493     0.12400
S897        S  0.80974790  0.18928903  0.81667757    -0.05800
C898        C  0.83038367  0.17029194  0.83205162    -0.09300
C899        C  0.84746892  0.15807450  0.81808498    -0.25900
S900        S  0.86231248  0.14978241  0.72970645    -0.03100
C901        C  0.84036439  0.16657226  0.71360617    -0.16500
C902        C  0.82429818  0.18063992  0.72701171    -0.14500
H903        H  0.80038892  0.19967955  0.76608887     0.20800
H904        H  0.87227214  0.14112270  0.77946250     0.16900
H905        H  0.86229267  0.14579942  0.82399136     0.19400
H906        H  0.80917776  0.19213423  0.72004364     0.12700
C907        C  0.92809334  0.08536671  0.93874154     0.16600
C908        C  0.92619354  0.10634531  0.92065971    -0.32400
C909        C  0.89639616  0.11035987  0.91990111     0.21000
C910        C  0.86992152  0.09469924  0.93658846     0.03200
C911        C  0.87149615  0.07316388  0.95442341    -0.22100
C912        C  0.90102426  0.06867097  0.95497086     0.12400
S913        S  0.96270969  0.07841696  0.94326852    -0.05800
C914        C  0.94005904  0.05205171  0.96693355    -0.09300
C915        C  0.90750756  0.04900661  0.97101723    -0.25900
S916        S  0.83671993  0.10409455  0.93312970    -0.03100
C917        C  0.85818812  0.12843476  0.90854689    -0.16500
C918        C  0.88962620  0.12948013  0.90361845    -0.14500
H919        H  0.94711258  0.11914680  0.90783126     0.20800
H920        H  0.85072709  0.06062001  0.96736543     0.16900
H921        H  0.89008564  0.03411717  0.98536602     0.19400
H922        H  0.90678719  0.14380407  0.88903724     0.12700
C923        C  0.90386644  0.29118519  0.92330112     0.16600
C924        C  0.93119515  0.32395312  0.93080117    -0.32400
C925        C  0.92295559  0.34134546  0.94760361     0.21000
C926        C  0.88885861  0.32718314  0.95623030     0.03200
C927        C  0.86159386  0.29409842  0.94898224    -0.22100
C928        C  0.87001288  0.27631314  0.93252039     0.11400
S929        S  0.90839394  0.26646290  0.90261804    -0.05800
C930        C  0.86446411  0.23539633  0.90685027    -0.09300
C931        C  0.84731692  0.24385529  0.92336290    -0.25900
S932        S  0.88422597  0.35304374  0.97606514    -0.03100
C933        C  0.92892859  0.38255229  0.97323813    -0.16500
C934        C  0.94613463  0.37295606  0.95746953    -0.14500
H935        H  0.95775027  0.33537801  0.92386234     0.20800
H936        H  0.83503561  0.28269623  0.95590065     0.16900
H937        H  0.81958464  0.22759016  0.92789853     0.19400
H938        H  0.97412904  0.38832725  0.95344759     0.12700
C939        C  0.66252420  0.06043257  0.95385109     0.16600
C940        C  0.69691625  0.06887462  0.94787771    -0.32400
C941        C  0.71421930  0.09461368  0.93025751     0.21000
C942        C  0.69771480  0.11055593  0.91871184     0.03200
C943        C  0.66357590  0.10244286  0.92487250    -0.22100
C944        C  0.64663446  0.07739196  0.94282631     0.12400
S945        S  0.63714762  0.03048549  0.97504273    -0.05800
C946        C  0.60548430  0.04198814  0.96943140    -0.09300
C947        C  0.61402597  0.06714141  0.95184289    -0.25900
S948        S  0.72246190  0.14002468  0.89721635    -0.03100
C949        C  0.75573731  0.13149161  0.90425613    -0.16500
C950        C  0.74786765  0.10697579  0.92221116    -0.14500
H951        H  0.70972772  0.05619636  0.95670099     0.20800
H952        H  0.65087231  0.11530880  0.91617257     0.16900
H953        H  0.59737241  0.07760553  0.94613191     0.19400
H954        H  0.76551350  0.09813845  0.92865837     0.12700
C955        C  0.82929025  0.66784677  0.85833840     0.87200
C956        C  0.79138723  0.64984387  0.86796143    -0.53100
C957        C  0.78954115  0.64844155  0.89161980     0.10100
C958        C  0.82566910  0.66544016  0.90365681     0.21000
C959        C  0.84847618  0.70438178  0.86939375    -0.53800
C960        C  0.84654672  0.70317454  0.89304933     0.10200
C961        C  0.84581447  0.64748313  0.87012890    -0.53300
C962        C  0.84387637  0.64632265  0.89383180     0.10800
H963        H  0.76802081  0.63870506  0.85701414     0.15300
H964        H  0.82422316  0.66471219  0.92294027     0.01000
H965        H  0.86248940  0.72906611  0.85939300     0.15600
H966        H  0.85754649  0.63455391  0.86100829     0.15400
C967        C  0.83810331  0.66504169  0.68729999     0.87200
C968        C  0.85551181  0.70159099  0.67505049    -0.53100
C969        C  0.85363194  0.70027895  0.65127293     0.10100
C970        C  0.83415242  0.66212486  0.64213904     0.21000
C971        C  0.80007951  0.64536122  0.67811113    -0.53800
C972        C  0.79763830  0.64380971  0.65439943     0.10200
C973        C  0.85583897  0.64610935  0.67643359    -0.53300
C974        C  0.85403249  0.64449089  0.65283745     0.10800
H975        H  0.86870251  0.72610795  0.68454525     0.15300
H976        H  0.83274580  0.66110955  0.62304079     0.01000
H977        H  0.77719451  0.63395951  0.68954662     0.15600
H978        H  0.86913439  0.63507484  0.68649471     0.15400
C979        C  0.66048454  0.82445155  0.18512442     0.87200
C980        C  0.64433702  0.78756672  0.17426617    -0.53100
C981        C  0.64488958  0.78806917  0.15055832     0.10100
C982        C  0.66152723  0.82565783  0.13994275     0.21000
C983        C  0.69792990  0.84550596  0.17466798    -0.53800
C984        C  0.69856118  0.84624738  0.15087426     0.10200
C985        C  0.64009521  0.84108399  0.17395060    -0.53300
C986        C  0.64055387  0.84175688  0.15016836     0.10800
H987        H  0.63355094  0.76307259  0.18437535     0.15300
H988        H  0.66202827  0.82632116  0.12081881     0.01000
H989        H  0.72152802  0.85857661  0.18528860     0.15600
H990        H  0.62642142  0.85107931  0.18415273     0.15400
C991        C  0.66973139  0.84080970  0.35643024     0.87200
C992        C  0.70737104  0.85896706  0.36657371    -0.53100
C993        C  0.70848692  0.85979667  0.39032690     0.10100
C994        C  0.67173390  0.84242814  0.40179576     0.21000
C995        C  0.65073768  0.80382776  0.36847670    -0.53800
C996        C  0.65202633  0.80478451  0.39214020     0.10200
C997        C  0.65214613  0.86012462  0.36690274    -0.53300
C998        C  0.65307248  0.86095472  0.39061789     0.10800
H999        H  0.73099183  0.86965144  0.35584803     0.15300
H1000       H  0.67211244  0.84266610  0.42107963     0.01000
H1001       H  0.63811698  0.77884412  0.35961296     0.15600
H1002       H  0.63940723  0.87151094  0.35644927     0.15400
Zn1003     Zn  0.94484432  0.97345658  0.01223386     1.49700
Zn1004     Zn  0.99851049  0.50035522  0.05494913     1.49400
Zn1005     Zn  0.51502951  0.96779040  0.01113818     1.49100
Zn1006     Zn  0.52004055  0.54286317  0.00592056     1.49500
O1007       O  0.99459020  0.49608175  0.02111737    -1.83500
O1008       O  0.91381804  0.95912877  0.04033909    -0.74100
O1009       O  0.52251790  0.97520783  0.06876756    -0.73900
O1010       O  0.98005459  0.92707576  0.99178739    -0.73400
O1011       O  0.95054128  0.97827177  0.07039107    -0.74100
O1012       O  0.93042213  0.92917804  0.99421991    -0.73700
O1013       O  0.52960087  0.94863625  0.03855412    -0.74300
O1014       O  0.56027407  0.54808032  0.98663679    -0.73700
O1015       O  0.52655592  0.55159652  0.06342949    -0.74400
O1016       O  0.55915516  0.49699429  0.99209818    -0.73800
O1017       O  0.54044535  0.58145377  0.02966307    -0.74300
O1018       O  0.98851935  0.55183086  0.98486668    -0.74200
O1019       O  0.93480258  0.50616752  0.99237462    -0.74000
C1020       C  0.91936402  0.96254343  0.06211076     0.77800
C1021       C  0.53228128  0.95492017  0.06019316     0.78300
C1022       C  0.94744630  0.91466571  0.98709014     0.77300
C1023       C  0.57318600  0.52817967  0.98334902     0.77600
C1024       C  0.54124499  0.58069483  0.05177860     0.78800
C1025       C  0.95517206  0.53572083  0.98214008     0.77800
Zn1026     Zn  0.55207713  0.52949425  0.51027528     1.49700
Zn1027     Zn  0.98068303  0.95387376  0.51020969     1.49400
Zn1028     Zn  0.00316785  0.00343427  0.55579697     1.49100
Zn1029     Zn  0.97744588  0.52503158  0.50898661     1.49500
O1030       O  0.00332810  0.00274697  0.52149156    -1.83500
O1031       O  0.56487452  0.99825047  0.49234590    -0.74100
O1032       O  0.96507124  0.91924305  0.53769994    -0.73900
O1033       O  0.55336284  0.52780235  0.56896413    -0.73400
O1034       O  0.51460583  0.94648968  0.49051328    -0.74100
O1035       O  0.58592221  0.54718932  0.53680185    -0.73700
O1036       O  0.97720085  0.95305688  0.56870518    -0.74300
O1037       O  0.96363781  0.54614072  0.53436759    -0.73700
O1038       O  0.93636387  0.94111738  0.49134388    -0.74400
O1039       O  0.97866870  0.52946248  0.56725040    -0.73800
O1040       O  0.93188895  0.98939055  0.49408094    -0.74300
O1041       O  0.50672812  0.56454893  0.48578932    -0.74200
O1042       O  0.56051556  0.57178303  0.49012323    -0.74000
C1043       C  0.54736914  0.96629172  0.48572781     0.77800
C1044       C  0.96446832  0.92266784  0.55961713     0.78300
C1045       C  0.58339479  0.54415582  0.55881680     0.77300
C1046       C  0.96476909  0.54523140  0.55642965     0.77600
C1047       C  0.91969869  0.95768297  0.48762369     0.78800
C1048       C  0.53974505  0.58136014  0.48129984     0.77800
C1049       C  0.82718646  0.92066601  0.46146160     0.16600
C1050       C  0.79272321  0.91265172  0.45583535    -0.32400
C1051       C  0.77879426  0.89640692  0.43454118     0.21000
C1052       C  0.79828295  0.88847300  0.41951486     0.03200
C1053       C  0.83237144  0.89555756  0.42544324    -0.22100
C1054       C  0.84631066  0.91177057  0.44675397     0.12400
S1055       S  0.84995198  0.94320223  0.48543392    -0.05800
C1056       C  0.88536734  0.94007428  0.47574160    -0.09300
C1057       C  0.87957244  0.92225879  0.45511510    -0.25900
S1058       S  0.77735167  0.87055846  0.39398170    -0.03100
C1059       C  0.74166259  0.87321459  0.40379082    -0.16500
C1060       C  0.74615247  0.88735859  0.42572759    -0.14500
H1061       H  0.77773282  0.91953863  0.46730321     0.20800
H1062       H  0.84764950  0.88938943  0.41373650     0.16900
H1063       H  0.89921305  0.91872880  0.44618878     0.19400
H1064       H  0.72680100  0.89132281  0.43465616     0.12700
C1065       C  0.60532368  0.93429930  0.45765463     0.16600
C1066       C  0.63206965  0.92714446  0.45159186    -0.32400
C1067       C  0.62593036  0.90522612  0.43256599     0.21000
C1068       C  0.59470067  0.89139253  0.42001430     0.03200
C1069       C  0.56761178  0.89773760  0.42646869    -0.22100
C1070       C  0.57358621  0.91931722  0.44561579     0.12400
S1071       S  0.60814959  0.96149043  0.47947079    -0.05800
C1072       C  0.56577741  0.95175084  0.47269070    -0.09300
C1073       C  0.55054677  0.92876811  0.45442167    -0.25900
S1074       S  0.59312682  0.86729670  0.39665978    -0.03100
C1075       C  0.63469169  0.87526783  0.40410616    -0.16500
C1076       C  0.64879481  0.89551275  0.42373007    -0.14500
H1077       H  0.65673865  0.93850865  0.46110460     0.20800
H1078       H  0.54309138  0.88666823  0.41680761     0.16900
H1079       H  0.52427467  0.91997893  0.44769785     0.19400
H1080       H  0.67466714  0.90334477  0.43080850     0.12700
C1081       C  0.56565895  0.65926332  0.43824768     0.16600
C1082       C  0.56702376  0.68285055  0.42076872    -0.32400
C1083       C  0.59800899  0.71612995  0.41890573     0.21000
C1084       C  0.62620894  0.72571112  0.43394817     0.03200
C1085       C  0.62516237  0.70182398  0.45104638    -0.22100
C1086       C  0.59437993  0.66839261  0.45272157     0.12400
S1087       S  0.52991093  0.61828576  0.44415489    -0.05800
C1088       C  0.55430972  0.61304537  0.46592076    -0.09300
C1089       C  0.58820632  0.64175842  0.46840052    -0.25900
S1090       S  0.66072321  0.76791463  0.42957964    -0.03100
C1091       C  0.63729838  0.77236754  0.40688980    -0.16500
C1092       C  0.60444964  0.74268861  0.40309709    -0.14500
H1093       H  0.54479283  0.67571482  0.40927485     0.20800
H1094       H  0.64726827  0.70908924  0.46267553     0.16900
H1095       H  0.60696240  0.64343618  0.48144144     0.19400
H1096       H  0.58617012  0.74083771  0.38963105     0.12700
C1097       C  0.65181665  0.81051349  0.25226847     0.16600
C1098       C  0.64452623  0.79658293  0.27494887    -0.32400
C1099       C  0.65728937  0.82050873  0.29316862     0.21000
C1100       C  0.67634412  0.85679440  0.28911561     0.03200
C1101       C  0.68341146  0.87088013  0.26627102    -0.22100
C1102       C  0.67069625  0.84677815  0.24793797     0.12400
S1103       S  0.63930850  0.78545813  0.22809976    -0.05800
C1104       C  0.65974488  0.82409867  0.21149089    -0.09300
C1105       C  0.67510417  0.85478283  0.22451141    -0.25900
S1106       S  0.68973510  0.88089668  0.31395450    -0.03100
C1107       C  0.66938087  0.84150755  0.32998063    -0.16500
C1108       C  0.65313469  0.81158661  0.31630684    -0.14500
H1109       H  0.62979854  0.76822766  0.27826161     0.20800
H1110       H  0.69835243  0.89922295  0.26294979     0.16900
H1111       H  0.68904555  0.88144275  0.21716892     0.19400
H1112       H  0.63891020  0.78441833  0.32248918     0.12700
C1113       C  0.58956631  0.67377598  0.07740466     0.16600
C1114       C  0.60637945  0.71019734  0.08164943    -0.32400
C1115       C  0.61378739  0.72075146  0.10484987     0.21000
C1116       C  0.60533663  0.69624610  0.12290636     0.03200
C1117       C  0.58888285  0.65996536  0.11866784    -0.22100
C1118       C  0.58099574  0.64938650  0.09558723     0.12400
S1119       S  0.57690025  0.65518723  0.05068411    -0.05800
C1120       C  0.55957410  0.61418578  0.06431662    -0.09300
C1121       C  0.56384340  0.61523522  0.08819979    -0.25900
S1122       S  0.61543254  0.71408569  0.14978672    -0.03100
C1123       C  0.63099084  0.75532949  0.13677566    -0.16500
C1124       C  0.62860524  0.75468988  0.11265203    -0.14500
H1125       H  0.61279545  0.72937810  0.06756592     0.20800
H1126       H  0.58190008  0.64075086  0.13279491     0.16900
H1127       H  0.55456909  0.59217013  0.09961862     0.19400
H1128       H  0.63644046  0.77741407  0.10120016     0.12700
C1129       C  0.77390768  0.88896363  0.10587748     0.16600
C1130       C  0.79394538  0.90088223  0.08548754    -0.32400
C1131       C  0.83072260  0.91846623  0.08765233     0.21000
C1132       C  0.84706702  0.92409124  0.10914205     0.03200
C1133       C  0.82688833  0.91200063  0.12964802    -0.22100
C1134       C  0.78988354  0.89428618  0.12746252     0.12400
S1135       S  0.72905016  0.86701899  0.10662526    -0.05800
C1136       C  0.73120806  0.86451689  0.13647931    -0.09300
C1137       C  0.76549327  0.88030459  0.14516943    -0.25900
S1138       S  0.89226687  0.94604502  0.10772607    -0.03100
C1139       C  0.88874577  0.94734957  0.07788805    -0.16500
C1140       C  0.85439036  0.93165974  0.06973194    -0.14500
H1141       H  0.78138508  0.89656220  0.06862927     0.20800
H1142       H  0.83942556  0.91614482  0.14649663     0.16900
H1143       H  0.77240775  0.88132043  0.16333427     0.19400
H1144       H  0.84704945  0.92977714  0.05157326     0.12700
C1145       C  0.56848192  0.91758026  0.10694301     0.16600
C1146       C  0.57953281  0.90827941  0.12751591    -0.32400
C1147       C  0.59535307  0.88738254  0.12562885     0.21000
C1148       C  0.59983541  0.87620054  0.10426149     0.03200
C1149       C  0.58871581  0.88537518  0.08372621    -0.22100
C1150       C  0.57301346  0.90630777  0.08559846     0.12400
S1151       S  0.54915465  0.94312306  0.10539575    -0.05800
C1152       C  0.54711895  0.93844723  0.07566820    -0.09300
C1153       C  0.56079131  0.91815454  0.06759563    -0.25900
S1154       S  0.62011223  0.85169449  0.10554712    -0.03100
C1155       C  0.62298814  0.85658639  0.13529116    -0.16500
C1156       C  0.60846504  0.87615285  0.14352432    -0.14500
H1157       H  0.57617201  0.91711598  0.14419859     0.20800
H1158       H  0.59235357  0.87677895  0.06702628     0.16900
H1159       H  0.56189200  0.91250846  0.04951257     0.19400
H1160       H  0.60800829  0.88251963  0.16150140     0.12700
C1161       C  0.91777516  0.59106067  0.58182893     0.16600
C1162       C  0.89865670  0.60840389  0.58540338    -0.32400
C1163       C  0.89111947  0.61230426  0.60840132     0.21000
C1164       C  0.90216264  0.59949662  0.62692779     0.03200
C1165       C  0.92126260  0.58217981  0.62338153    -0.22100
C1166       C  0.92879427  0.57827347  0.60041871     0.12400
S1167       S  0.92911419  0.58325216  0.55530334    -0.05800
C1168       C  0.94879204  0.56236162  0.56937762    -0.09300
C1169       C  0.94670569  0.56183509  0.59340356    -0.25900
S1170       S  0.89076309  0.60703215  0.65341104    -0.03100
C1171       C  0.87083788  0.62798047  0.63957674    -0.16500
C1172       C  0.87308090  0.62861597  0.61549528    -0.14500
H1173       H  0.89001012  0.61836171  0.57090560     0.20800
H1174       H  0.92985020  0.57217515  0.63789116     0.16900
H1175       H  0.95723516  0.54964463  0.60507981     0.19400
H1176       H  0.86265674  0.64064993  0.60365999     0.12700
C1177       C  0.89414869  0.77491588  0.60418975     0.16600
C1178       C  0.90729718  0.79535974  0.58365241    -0.32400
C1179       C  0.92209968  0.83222430  0.58511987     0.21000
C1180       C  0.92374541  0.84797811  0.60608829     0.03200
C1181       C  0.91054720  0.82752702  0.62656848    -0.22100
C1182       C  0.89578874  0.79072468  0.62510669     0.12400
S1183       S  0.87530414  0.72990032  0.60620979    -0.05800
C1184       C  0.86964401  0.73226343  0.63564505    -0.09300
C1185       C  0.88179406  0.76651492  0.64315657    -0.25900
S1186       S  0.94269778  0.89300780  0.60431359    -0.03100
C1187       C  0.94840522  0.89076266  0.57493970    -0.16500
C1188       C  0.93618984  0.85665702  0.56714596    -0.14500
H1189       H  0.90606126  0.78308925  0.56727537     0.20800
H1190       H  0.91178377  0.83978779  0.64295506     0.16900
H1191       H  0.88043638  0.77359169  0.66084389     0.19400
H1192       H  0.93750195  0.85008870  0.54930004     0.12700
C1193       C  0.67648871  0.58732211  0.58492911     0.16600
C1194       C  0.71306460  0.60448840  0.58838839    -0.32400
C1195       C  0.72529863  0.60938997  0.61130098     0.21000
C1196       C  0.70220101  0.59766037  0.63001840     0.03200
C1197       C  0.66541327  0.58023809  0.62657724    -0.22100
C1198       C  0.65310960  0.57538838  0.60355286     0.12400
S1199       S  0.65691061  0.57941270  0.55838291    -0.05800
C1200       C  0.61650171  0.55968231  0.57228881    -0.09300
C1201       C  0.61842887  0.55932641  0.59639261    -0.25900
S1202       S  0.72278453  0.60682598  0.65639155    -0.03100
C1203       C  0.76306922  0.62676635  0.64201496    -0.16500
C1204       C  0.75999898  0.62593282  0.61798365    -0.14500
H1205       H  0.73125525  0.61380948  0.57380586     0.20800
H1206       H  0.64724824  0.57106222  0.64116401     0.16900
H1207       H  0.59580768  0.54798587  0.60798227     0.19400
H1208       H  0.78169162  0.63696376  0.60571771     0.12700
C1209       C  0.82362978  0.67999883  0.79157878     0.16600
C1210       C  0.81612041  0.68720208  0.76897765    -0.32400
C1211       C  0.82935174  0.67709459  0.75031394     0.21000
C1212       C  0.84930287  0.66095142  0.75414315     0.03200
C1213       C  0.85691221  0.65399995  0.77657986    -0.22100
C1214       C  0.84343779  0.66366130  0.79511487     0.12400
S1215       S  0.80974790  0.68928920  0.81667755    -0.05800
C1216       C  0.83038354  0.67029195  0.83205157    -0.09300
C1217       C  0.84746869  0.65807439  0.81808490    -0.25900
S1218       S  0.86231228  0.64978248  0.72970637    -0.03100
C1219       C  0.84036430  0.66657249  0.71360610    -0.16500
C1220       C  0.82429815  0.68064014  0.72701167    -0.14500
H1221       H  0.80038908  0.69967988  0.76608886     0.20800
H1222       H  0.87227160  0.64112264  0.77946239     0.16900
H1223       H  0.86229222  0.64579926  0.82399120     0.19400
H1224       H  0.80917756  0.69213471  0.72004350     0.12700
C1225       C  0.92809342  0.58536653  0.93874134     0.16600
C1226       C  0.92619357  0.60634495  0.92065939    -0.32400
C1227       C  0.89639628  0.61035970  0.91990084     0.21000
C1228       C  0.86992179  0.59469937  0.93658830     0.03200
C1229       C  0.87149647  0.57316418  0.95442333    -0.22100
C1230       C  0.90102448  0.56867113  0.95497079     0.12400
S1231       S  0.96270970  0.57841666  0.94326832    -0.05800
C1232       C  0.94005925  0.55205187  0.96693357    -0.09300
C1233       C  0.90750786  0.54900697  0.97101728    -0.25900
S1234       S  0.83672034  0.60409488  0.93312962    -0.03100
C1235       C  0.85818836  0.62843481  0.90854669    -0.16500
C1236       C  0.88962632  0.62947994  0.90361814    -0.14500
H1237       H  0.94711244  0.61914616  0.90783088     0.20800
H1238       H  0.85072745  0.56062053  0.96736549     0.16900
H1239       H  0.89008599  0.53411774  0.98536622     0.19400
H1240       H  0.90678715  0.64380365  0.88903691     0.12700
C1241       C  0.90386644  0.79118494  0.92330124     0.16600
C1242       C  0.93119520  0.82395284  0.93080134    -0.32400
C1243       C  0.92295562  0.84134519  0.94760377     0.21000
C1244       C  0.88885863  0.82718289  0.95623041     0.03200
C1245       C  0.86159384  0.79409820  0.94898232    -0.22100
C1246       C  0.87001288  0.77631293  0.93252047     0.11400
S1247       S  0.90839396  0.76646272  0.90261812    -0.05800
C1248       C  0.86446408  0.73539623  0.90685026    -0.09300
C1249       C  0.84731688  0.74385515  0.92336291    -0.25900
S1250       S  0.88422596  0.85304351  0.97606522    -0.03100
C1251       C  0.92892861  0.88255205  0.97323826    -0.16500
C1252       C  0.94613464  0.87295578  0.95746969    -0.14500
H1253       H  0.95775017  0.83537762  0.92386258     0.20800
H1254       H  0.83503568  0.78269610  0.95590065     0.16900
H1255       H  0.81958458  0.72759007  0.92789848     0.19400
H1256       H  0.97412927  0.88832708  0.95344774     0.12700
C1257       C  0.66252410  0.56043235  0.95385095     0.16600
C1258       C  0.69691592  0.56887394  0.94787731    -0.32400
C1259       C  0.71421928  0.59461346  0.93025742     0.21000
C1260       C  0.69771527  0.61055666  0.91871228     0.03200
C1261       C  0.66357658  0.60244403  0.92487318    -0.22100
C1262       C  0.64663487  0.57739260  0.94282668     0.12400
S1263       S  0.63714718  0.53048480  0.97504228    -0.05800
C1264       C  0.60548439  0.54198836  0.96943150    -0.09300
C1265       C  0.61402648  0.56714230  0.95184338    -0.25900
S1266       S  0.72246260  0.64002585  0.89721704    -0.03100
C1267       C  0.75573744  0.63149164  0.90425619    -0.16500
C1268       C  0.74786744  0.60697518  0.92221084    -0.14500
H1269       H  0.70972708  0.55619487  0.95670023     0.20800
H1270       H  0.65087343  0.61531057  0.91617370     0.16900
H1271       H  0.59737343  0.57760693  0.94613279     0.19400
H1272       H  0.76551296  0.59813710  0.92865765     0.12700
loop_ 
_geom_bond_atom_site_label_1 
_geom_bond_atom_site_label_2 
_geom_bond_distance 
_geom_bond_site_symmetry_2 
_ccdc_geom_bond_type 
C1            C2   1.536       .  S
C1            C7   1.545       .  S
C1            C5   1.530       .  S
C1          C262   1.514       .  S
C2            H9   1.086       .  S
C2            C3   1.363       .  D
C3            C4   1.533       .  S
C3          C313   1.468       .  S
C4            C8   1.534       .  S
C4            C6   1.539       .  S
C4           H10   1.111       .  S
C5           H11   1.086       .  S
C5            C6   1.363       .  D
C6          C294   1.468       .  S
C7           H12   1.082       .  S
C7            C8   1.366       .  D
C8          C281   1.474       .  S
C13          C14   1.535       .  S
C13          C19   1.536       .  S
C13          C17   1.533       .  S
C13         C265   1.517       .  S
C14          H21   1.085       .  S
C14          C15   1.371       .  D
C15          C16   1.543       .  S
C15         C230   1.489       .  S
C16          C20   1.541       .  S
C16          C18   1.548       .  S
C16          H22   1.101       .  S
C17          H23   1.085       .  S
C17          C18   1.369       .  D
C18         C249   1.490       .  S
C19          H24   1.082       .  S
C19          C20   1.361       .  D
C20         C217   1.488       .  S
C25          C26   1.541       .  S
C25          C31   1.536       .  S
C25          C29   1.538       .  S
C25         C150   1.518       .  S
C26          H33   1.083       .  S
C26          C27   1.364       .  D
C27          C28   1.534       .  S
C27         C169   1.487       .  S
C28          C32   1.538       .  S
C28          C30   1.539       .  S
C28          H34   1.101       .  S
C29          H35   1.084       .  S
C29          C30   1.369       .  D
C30         C182   1.485       .  S
C31          H36   1.084       .  S
C31          C32   1.369       .  D
C32         C201   1.486       .  S
C37          C38   1.539       .  S
C37          C43   1.535       .  S
C37          C41   1.544       .  S
C37         C153   1.522       .  S
C38          H45   1.086       .  S
C38          C39   1.368       .  D
C39          C40   1.538       .  S
C39         C105   1.481       .  S
C40          C44   1.539       .  S
C40          C42   1.536       .  S
C40          H46   1.110       .  S
C41          H47   1.081       .  S
C41          C42   1.363       .  D
C42         C137   1.475       .  S
C43          H48   1.086       .  S
C43          C44   1.366       .  D
C44         C121   1.478       .  S
Zn49         O54   1.997       .  S
Zn49         O58   2.016   1_554  S
Zn49        O383   2.022   1_554  S
Zn49        O371   1.952       .  S
Zn50       O1009   2.013   1_545  S
Zn50        O375   2.020   1_545  S
Zn50        O697   2.006       .  S
Zn50         O53   1.958   1_545  S
Zn51         O59   2.014       .  S
Zn51        O692   2.015   1_454  S
Zn51        O380   2.012   1_554  S
Zn51       O1007   1.954   1_455  S
Zn52         O60   2.001   1_554  S
Zn52         O63   2.018       .  S
Zn52        O700   2.004   1_454  S
Zn52        O689   1.954   1_445  S
O53        Zn367   1.952       .  S
O53       Zn1005   1.954       .  S
O53        Zn688   1.954   1_565  S
O54          C66   1.272       .  A
O55       Zn1004   2.013   1_455  S
O55          C67   1.272       .  A
O56        Zn687   2.015   1_556  S
O56          C68   1.274       .  A
O57        Zn368   2.020       .  S
O57          C66   1.272       .  A
O58          C68   1.273       .  A
O59          C67   1.273       .  A
O60          C69   1.271       .  A
O61        Zn686   2.006   1_455  S
O61          C70   1.274       .  A
O62        Zn369   2.012   1_556  S
O62          C69   1.271   1_565  A
O63          C70   1.273       .  A
O64        Zn688   2.004   1_556  S
O64          C71   1.271       .  A
O65        Zn367   2.022   1_546  S
O65          C71   1.273       .  A
C66         C185   1.469       .  S
C67         C198   1.471       .  S
C68         C297   1.467       .  S
C69         C310   1.464       .  S
C70         C166   1.469       .  S
C71         C278   1.466       .  S
Zn72         O81   1.995       .  S
Zn72         O88   2.028       .  S
Zn72        O395   2.022   1_545  S
Zn72       O1030   1.952       .  S
Zn73         O78   2.031       .  S
Zn73         O84   2.038       .  S
Zn73        O716   2.031       .  S
Zn73         O76   1.970       .  S
Zn74         O82   2.025       .  S
Zn74       O1033   2.045       .  S
Zn74        O403   2.039       .  S
Zn74         O76   1.976       .  S
Zn75         O83   1.998       .  S
Zn75        O404   2.009   1_545  S
Zn75        O723   2.024       .  S
Zn75        O394   1.953       .  S
O76       Zn1026   1.952       .  S
O76        Zn393   1.953       .  S
O77        Zn390   2.022       .  S
O77          C89   1.273       .  A
O78          C90   1.276       .  A
O79       Zn1028   2.045       .  S
O79          C91   1.275       .  A
O80        Zn709   2.031   1_455  S
O80          C89   1.275       .  A
O81          C91   1.271       .  A
O82          C90   1.276       .  A
O83          C92   1.271       .  A
O84          C93   1.274       .  A
O85        Zn392   2.039       .  S
O85          C92   1.276       .  A
O86        Zn393   2.009       .  S
O86          C93   1.271       .  A
O87        Zn711   2.024   1_455  S
O87          C94   1.274       .  A
O88          C94   1.275       .  A
C89         C118   1.472       .  S
C90         C233   1.476       .  S
C91         C246   1.474       .  S
C92         C214   1.473       .  S
C93         C102   1.469       .  S
C94         C134   1.473       .  S
C95         S101   1.707       .  A
C95         C100   1.388       .  A
C95          C96   1.402       .  A
C96          C97   1.403       .  A
C96         H107   1.083       .  S
C97         C106   1.372       .  A
C97          C98   1.386       .  A
C98         S104   1.708       .  A
C98          C99   1.403       .  A
C99         C100   1.403       .  A
C99         H108   1.083       .  S
C100        C103   1.373       .  A
S101        C102   1.722       .  A
C102        C103   1.385       .  A
C103        H109   1.083       .  S
S104        C105   1.725       .  A
C105        C106   1.387       .  A
C106        H110   1.083       .  S
C111        S117   1.709       .  A
C111        C116   1.387       .  A
C111        C112   1.404       .  A
C112        C113   1.404       .  A
C112        H123   1.083       .  S
C113        C122   1.374       .  A
C113        C114   1.387       .  A
C114        S120   1.706       .  A
C114        C115   1.402       .  A
C115        C116   1.402       .  A
C115        H124   1.083       .  S
C116        C119   1.373       .  A
S117        C118   1.724       .  A
C118        C119   1.385       .  A
C119        H125   1.083       .  S
S120        C121   1.723       .  A
C121        C122   1.386       .  A
C122        H126   1.083       .  S
C127        S133   1.710       .  A
C127        C132   1.387       .  A
C127        C128   1.403       .  A
C128        C129   1.404       .  A
C128        H139   1.083       .  S
C129        C138   1.371       .  A
C129        C130   1.387       .  A
C130        S136   1.709       .  A
C130        C131   1.401       .  A
C131        C132   1.403       .  A
C131        H140   1.083       .  S
C132        C135   1.371       .  A
S133        C134   1.724       .  A
C134        C135   1.386       .  A
C135        H141   1.083       .  S
S136        C137   1.720       .  A
C137        C138   1.386       .  A
C138        H142   1.083       .  S
C143        S149   1.699       .  A
C143        C148   1.385       .  A
C143        C144   1.397       .  A
C144        C145   1.398       .  A
C144        H155   1.082       .  S
C145        C154   1.366       .  A
C145        C146   1.384       .  A
C146        S152   1.711       .  A
C146        C147   1.407       .  A
C147        C148   1.408       .  A
C147        H156   1.082       .  S
C148        C151   1.376       .  A
S149        C150   1.726       .  A
C150        C151   1.392       .  A
C151        H157   1.083       .  S
S152        C153   1.732       .  A
C153        C154   1.390       .  A
C154        H158   1.078       .  S
C159        S165   1.709       .  A
C159        C164   1.387       .  A
C159        C160   1.402       .  A
C160        C161   1.404       .  A
C160        H171   1.083       .  S
C161        C170   1.370       .  A
C161        C162   1.385       .  A
C162        S168   1.701       .  A
C162        C163   1.397       .  A
C163        C164   1.399       .  A
C163        H172   1.083       .  S
C164        C167   1.365       .  A
S165        C166   1.724       .  A
C166        C167   1.384       .  A
C167        H173   1.083       .  S
S168        C169   1.726       .  A
C169        C170   1.391       .  A
C170        H174   1.080       .  S
C175        S181   1.696       .  A
C175        C180   1.386       .  A
C175        C176   1.396       .  A
C176        C177   1.396       .  A
C176        H187   1.083       .  S
C177        C186   1.363       .  A
C177        C178   1.387       .  A
C178        S184   1.710       .  A
C178        C179   1.404       .  A
C179        C180   1.405       .  A
C179        H188   1.083       .  S
C180        C183   1.373       .  A
S181        C182   1.724       .  A
C182        C183   1.391       .  A
C183        H189   1.081       .  S
S184        C185   1.725       .  A
C185        C186   1.383       .  A
C186        H190   1.083       .  S
C191        S197   1.707       .  A
C191        C196   1.387       .  A
C191        C192   1.402       .  A
C192        C193   1.403       .  A
C192        H203   1.082       .  S
C193        C202   1.371       .  A
C193        C194   1.385       .  A
C194        S200   1.701       .  A
C194        C195   1.399       .  A
C195        C196   1.400       .  A
C195        H204   1.082       .  S
C196        C199   1.368       .  A
S197        C198   1.724       .  A
C198        C199   1.386       .  A
C199        H205   1.082       .  S
S200        C201   1.726       .  A
C201        C202   1.390       .  A
C202        H206   1.081       .  S
C207        S213   1.704       .  A
C207        C212   1.387       .  A
C207        C208   1.402       .  A
C208        C209   1.402       .  A
C208        H219   1.083       .  S
C209        C218   1.373       .  A
C209        C210   1.385       .  A
C210        S216   1.698       .  A
C210        C211   1.401       .  A
C211        C212   1.400       .  A
C211        H220   1.083       .  S
C212        C215   1.371       .  A
S213        C214   1.725       .  A
C214        C215   1.386       .  A
C215        H221   1.083       .  S
S216        C217   1.729       .  A
C217        C218   1.389       .  A
C218        H222   1.081       .  S
C223        S229   1.707       .  A
C223        C228   1.385       .  A
C223        C224   1.404       .  A
C224        C225   1.404       .  A
C224        H235   1.083       .  S
C225        C234   1.373       .  A
C225        C226   1.387       .  A
C226        S232   1.707       .  A
C226        C227   1.401       .  A
C227        C228   1.402       .  A
C227        H236   1.083       .  S
C228        C231   1.371       .  A
S229        C230   1.728       .  A
C230        C231   1.390       .  A
C231        H237   1.082       .  S
S232        C233   1.724       .  A
C233        C234   1.389       .  A
C234        H238   1.083       .  S
C239        S245   1.700       .  A
C239        C244   1.387       .  A
C239        C240   1.398       .  A
C240        C241   1.399       .  A
C240        H251   1.083       .  S
C241        C250   1.368       .  A
C241        C242   1.385       .  A
C242        S248   1.707       .  A
C242        C243   1.406       .  A
C243        C244   1.406       .  A
C243        H252   1.083       .  S
C244        C247   1.376       .  A
S245        C246   1.723       .  A
C246        C247   1.389       .  A
C247        H253   1.083       .  S
S248        C249   1.731       .  A
C249        C250   1.388       .  A
C250        H254   1.080       .  S
C255        S261   1.707       .  A
C255        C260   1.385       .  A
C255        C256   1.406       .  A
C256        C257   1.406       .  A
C256        H267   1.082       .  S
C257        C266   1.375       .  A
C257        C258   1.385       .  A
C258        S264   1.694       .  A
C258        C259   1.395       .  A
C259        C260   1.396       .  A
C259        H268   1.082       .  S
C260        C263   1.365       .  A
S261        C262   1.731       .  A
C262        C263   1.387       .  A
C263        H269   1.078       .  S
S264        C265   1.727       .  A
C265        C266   1.391       .  A
C266        H270   1.083       .  S
C271        S277   1.706       .  A
C271        C276   1.388       .  A
C271        C272   1.400       .  A
C272        C273   1.401       .  A
C272        H283   1.083       .  S
C273        C282   1.368       .  A
C273        C274   1.387       .  A
C274        S280   1.707       .  A
C274        C275   1.401       .  A
C275        C276   1.402       .  A
C275        H284   1.083       .  S
C276        C279   1.369       .  A
S277        C278   1.722       .  A
C278        C279   1.384       .  A
C279        H285   1.083       .  S
S280        C281   1.721       .  A
C281        C282   1.386       .  A
C282        H286   1.083       .  S
C287        S293   1.704       .  A
C287        C292   1.388       .  A
C287        C288   1.399       .  A
C288        C289   1.400       .  A
C288        H299   1.083       .  S
C289        C298   1.368       .  A
C289        C290   1.387       .  A
C290        S296   1.708       .  A
C290        C291   1.402       .  A
C291        C292   1.403       .  A
C291        H300   1.083       .  S
C292        C295   1.371       .  A
S293        C294   1.720       .  A
C294        C295   1.383       .  A
C295        H301   1.083       .  S
S296        C297   1.723       .  A
C297        C298   1.384       .  A
C298        H302   1.083       .  S
C303        S309   1.708       .  A
C303        C308   1.387       .  A
C303        C304   1.401       .  A
C304        C305   1.403       .  A
C304        H315   1.084       .  S
C305        C314   1.369       .  A
C305        C306   1.388       .  A
C306        S312   1.704       .  A
C306        C307   1.398       .  A
C307        C308   1.399       .  A
C307        H316   1.083       .  S
C308        C311   1.366       .  A
S309        C310   1.722       .  A
C310        C311   1.383       .  A
C311        H317   1.083       .  S
S312        C313   1.719       .  A
C313        C314   1.384       .  A
C314        H318   1.083       .  S
C319        C320   1.536       .  S
C319        C325   1.545       .  S
C319        C323   1.530       .  S
C319        C580   1.514       .  S
C320        H327   1.086       .  S
C320        C321   1.363       .  D
C321        C322   1.533       .  S
C321        C631   1.468       .  S
C322        C326   1.534       .  S
C322        C324   1.539       .  S
C322        H328   1.111       .  S
C323        H329   1.086       .  S
C323        C324   1.363       .  D
C324        C612   1.468       .  S
C325        H330   1.082       .  S
C325        C326   1.366       .  D
C326        C599   1.474       .  S
C331        C332   1.535       .  S
C331        C337   1.536       .  S
C331        C335   1.533       .  S
C331        C583   1.517       .  S
C332        H339   1.085       .  S
C332        C333   1.371       .  D
C333        C334   1.543       .  S
C333        C548   1.489       .  S
C334        C338   1.541       .  S
C334        C336   1.548       .  S
C334        H340   1.101       .  S
C335        H341   1.085       .  S
C335        C336   1.369       .  D
C336        C567   1.490       .  S
C337        H342   1.082       .  S
C337        C338   1.361       .  D
C338        C535   1.488       .  S
C343        C344   1.541       .  S
C343        C349   1.536       .  S
C343        C347   1.538       .  S
C343        C468   1.518       .  S
C344        H351   1.083       .  S
C344        C345   1.364       .  D
C345        C346   1.534       .  S
C345        C487   1.487       .  S
C346        C350   1.538       .  S
C346        C348   1.539       .  S
C346        H352   1.101       .  S
C347        H353   1.084       .  S
C347        C348   1.369       .  D
C348        C500   1.485       .  S
C349        H354   1.084       .  S
C349        C350   1.369       .  D
C350        C519   1.486       .  S
C355        C356   1.539       .  S
C355        C361   1.535       .  S
C355        C359   1.544       .  S
C355        C471   1.522       .  S
C356        H363   1.086       .  S
C356        C357   1.368       .  D
C357        C358   1.538       .  S
C357        C423   1.481       .  S
C358        C362   1.539       .  S
C358        C360   1.536       .  S
C358        H364   1.110       .  S
C359        H365   1.081       .  S
C359        C360   1.363       .  D
C360        C455   1.475       .  S
C361        H366   1.086       .  S
C361        C362   1.366       .  D
C362        C439   1.478       .  S
Zn367       O372   1.997       .  S
Zn367       O376   2.016   1_554  S
Zn368       O691   2.013       .  S
Zn368      O1015   2.006       .  S
Zn368       O371   1.958       .  S
Zn369      O1010   2.015   1_454  S
Zn369       O377   2.014       .  S
Zn369       O689   1.954   1_455  S
Zn370       O378   2.001   1_554  S
Zn370       O381   2.018       .  S
Zn370      O1018   2.004   1_454  S
Zn370      O1007   1.954   1_455  S
O371       Zn687   1.954       .  S
O371      Zn1006   1.954       .  S
O372        C384   1.272       .  A
O373       Zn686   2.013   1_465  S
O373        C385   1.272       .  A
O374      Zn1005   2.015   1_556  S
O374        C386   1.274       .  A
O375        C384   1.272       .  A
O376        C386   1.273       .  A
O377        C385   1.273       .  A
O378        C387   1.271       .  A
O379      Zn1004   2.006   1_455  S
O379        C388   1.274       .  A
O380        C387   1.271       .  A
O381        C388   1.273       .  A
O382      Zn1006   2.004   1_556  S
O382        C389   1.271       .  A
O383        C389   1.273       .  A
C384        C503   1.469       .  S
C385        C516   1.471       .  S
C386        C615   1.467       .  S
C387        C628   1.464       .  S
C388        C484   1.469       .  S
C389        C596   1.466       .  S
Zn390       O399   1.995       .  S
Zn390       O406   2.028       .  S
Zn390       O712   1.952       .  S
Zn391       O396   2.031       .  S
Zn391      O1034   2.031       .  S
Zn391       O402   2.038       .  S
Zn391       O394   1.970   1_565  S
Zn392       O715   2.045       .  S
Zn392       O400   2.025   1_545  S
Zn392       O394   1.976       .  S
Zn393       O401   1.998       .  S
Zn393      O1041   2.024       .  S
O394       Zn708   1.952       .  S
O395        C407   1.273       .  A
O396        C408   1.276       .  A
O397       Zn710   2.045       .  S
O397        C409   1.275       .  A
O398      Zn1027   2.031   1_455  S
O398        C407   1.275       .  A
O399        C409   1.271       .  A
O400        C408   1.276       .  A
O401        C410   1.271       .  A
O402        C411   1.274       .  A
O403        C410   1.276       .  A
O404        C411   1.271       .  A
O405      Zn1029   2.024   1_455  S
O405        C412   1.274       .  A
O406        C412   1.275       .  A
C407        C436   1.472       .  S
C408        C551   1.476       .  S
C409        C564   1.474       .  S
C410        C532   1.473       .  S
C411        C420   1.469       .  S
C412        C452   1.473       .  S
C413        S419   1.707       .  A
C413        C418   1.388       .  A
C413        C414   1.402       .  A
C414        C415   1.403       .  A
C414        H425   1.083       .  S
C415        C424   1.372       .  A
C415        C416   1.386       .  A
C416        S422   1.708       .  A
C416        C417   1.403       .  A
C417        C418   1.403       .  A
C417        H426   1.083       .  S
C418        C421   1.373       .  A
S419        C420   1.722       .  A
C420        C421   1.385       .  A
C421        H427   1.083       .  S
S422        C423   1.725       .  A
C423        C424   1.387       .  A
C424        H428   1.083       .  S
C429        S435   1.709       .  A
C429        C434   1.387       .  A
C429        C430   1.404       .  A
C430        C431   1.404       .  A
C430        H441   1.083       .  S
C431        C440   1.374       .  A
C431        C432   1.387       .  A
C432        S438   1.706       .  A
C432        C433   1.402       .  A
C433        C434   1.402       .  A
C433        H442   1.083       .  S
C434        C437   1.373       .  A
S435        C436   1.724       .  A
C436        C437   1.385       .  A
C437        H443   1.083       .  S
S438        C439   1.723       .  A
C439        C440   1.386       .  A
C440        H444   1.083       .  S
C445        S451   1.710       .  A
C445        C450   1.387       .  A
C445        C446   1.403       .  A
C446        C447   1.404       .  A
C446        H457   1.083       .  S
C447        C456   1.371       .  A
C447        C448   1.387       .  A
C448        S454   1.709       .  A
C448        C449   1.401       .  A
C449        C450   1.403       .  A
C449        H458   1.083       .  S
C450        C453   1.371       .  A
S451        C452   1.724       .  A
C452        C453   1.386       .  A
C453        H459   1.083       .  S
S454        C455   1.720       .  A
C455        C456   1.386       .  A
C456        H460   1.083       .  S
C461        S467   1.699       .  A
C461        C466   1.385       .  A
C461        C462   1.397       .  A
C462        C463   1.398       .  A
C462        H473   1.082       .  S
C463        C472   1.366       .  A
C463        C464   1.384       .  A
C464        S470   1.711       .  A
C464        C465   1.407       .  A
C465        C466   1.408       .  A
C465        H474   1.082       .  S
C466        C469   1.376       .  A
S467        C468   1.726       .  A
C468        C469   1.392       .  A
C469        H475   1.083       .  S
S470        C471   1.732       .  A
C471        C472   1.390       .  A
C472        H476   1.078       .  S
C477        S483   1.709       .  A
C477        C482   1.387       .  A
C477        C478   1.402       .  A
C478        C479   1.404       .  A
C478        H489   1.083       .  S
C479        C488   1.370       .  A
C479        C480   1.385       .  A
C480        S486   1.701       .  A
C480        C481   1.397       .  A
C481        C482   1.399       .  A
C481        H490   1.083       .  S
C482        C485   1.365       .  A
S483        C484   1.724       .  A
C484        C485   1.384       .  A
C485        H491   1.083       .  S
S486        C487   1.726       .  A
C487        C488   1.391       .  A
C488        H492   1.080       .  S
C493        S499   1.696       .  A
C493        C498   1.386       .  A
C493        C494   1.396       .  A
C494        C495   1.396       .  A
C494        H505   1.083       .  S
C495        C504   1.363       .  A
C495        C496   1.387       .  A
C496        S502   1.710       .  A
C496        C497   1.404       .  A
C497        C498   1.405       .  A
C497        H506   1.083       .  S
C498        C501   1.373       .  A
S499        C500   1.724       .  A
C500        C501   1.391       .  A
C501        H507   1.081       .  S
S502        C503   1.725       .  A
C503        C504   1.383       .  A
C504        H508   1.083       .  S
C509        S515   1.707       .  A
C509        C514   1.387       .  A
C509        C510   1.402       .  A
C510        C511   1.403       .  A
C510        H521   1.082       .  S
C511        C520   1.371       .  A
C511        C512   1.385       .  A
C512        S518   1.701       .  A
C512        C513   1.399       .  A
C513        C514   1.400       .  A
C513        H522   1.082       .  S
C514        C517   1.368       .  A
S515        C516   1.724       .  A
C516        C517   1.386       .  A
C517        H523   1.082       .  S
S518        C519   1.726       .  A
C519        C520   1.390       .  A
C520        H524   1.081       .  S
C525        S531   1.704       .  A
C525        C530   1.387       .  A
C525        C526   1.402       .  A
C526        C527   1.402       .  A
C526        H537   1.083       .  S
C527        C536   1.373       .  A
C527        C528   1.385       .  A
C528        S534   1.698       .  A
C528        C529   1.401       .  A
C529        C530   1.400       .  A
C529        H538   1.083       .  S
C530        C533   1.371       .  A
S531        C532   1.725       .  A
C532        C533   1.386       .  A
C533        H539   1.083       .  S
S534        C535   1.729       .  A
C535        C536   1.389       .  A
C536        H540   1.081       .  S
C541        S547   1.707       .  A
C541        C546   1.385       .  A
C541        C542   1.404       .  A
C542        C543   1.404       .  A
C542        H553   1.083       .  S
C543        C552   1.373       .  A
C543        C544   1.387       .  A
C544        S550   1.707       .  A
C544        C545   1.401       .  A
C545        C546   1.402       .  A
C545        H554   1.083       .  S
C546        C549   1.371       .  A
S547        C548   1.728       .  A
C548        C549   1.390       .  A
C549        H555   1.082       .  S
S550        C551   1.724       .  A
C551        C552   1.389       .  A
C552        H556   1.083       .  S
C557        S563   1.700       .  A
C557        C562   1.387       .  A
C557        C558   1.398       .  A
C558        C559   1.399       .  A
C558        H569   1.083       .  S
C559        C568   1.368       .  A
C559        C560   1.385       .  A
C560        S566   1.707       .  A
C560        C561   1.406       .  A
C561        C562   1.406       .  A
C561        H570   1.083       .  S
C562        C565   1.376       .  A
S563        C564   1.723       .  A
C564        C565   1.389       .  A
C565        H571   1.083       .  S
S566        C567   1.731       .  A
C567        C568   1.388       .  A
C568        H572   1.080       .  S
C573        S579   1.707       .  A
C573        C578   1.385       .  A
C573        C574   1.406       .  A
C574        C575   1.406       .  A
C574        H585   1.082       .  S
C575        C584   1.375       .  A
C575        C576   1.385       .  A
C576        S582   1.694       .  A
C576        C577   1.395       .  A
C577        C578   1.396       .  A
C577        H586   1.082       .  S
C578        C581   1.365       .  A
S579        C580   1.731       .  A
C580        C581   1.387       .  A
C581        H587   1.078       .  S
S582        C583   1.727       .  A
C583        C584   1.391       .  A
C584        H588   1.083       .  S
C589        S595   1.706       .  A
C589        C594   1.388       .  A
C589        C590   1.400       .  A
C590        C591   1.401       .  A
C590        H601   1.083       .  S
C591        C600   1.368       .  A
C591        C592   1.387       .  A
C592        S598   1.707       .  A
C592        C593   1.401       .  A
C593        C594   1.402       .  A
C593        H602   1.083       .  S
C594        C597   1.369       .  A
S595        C596   1.722       .  A
C596        C597   1.384       .  A
C597        H603   1.083       .  S
S598        C599   1.721       .  A
C599        C600   1.386       .  A
C600        H604   1.083       .  S
C605        S611   1.704       .  A
C605        C610   1.388       .  A
C605        C606   1.399       .  A
C606        C607   1.400       .  A
C606        H617   1.083       .  S
C607        C616   1.368       .  A
C607        C608   1.387       .  A
C608        S614   1.708       .  A
C608        C609   1.402       .  A
C609        C610   1.403       .  A
C609        H618   1.083       .  S
C610        C613   1.371       .  A
S611        C612   1.720       .  A
C612        C613   1.383       .  A
C613        H619   1.083       .  S
S614        C615   1.723       .  A
C615        C616   1.384       .  A
C616        H620   1.083       .  S
C621        S627   1.708       .  A
C621        C626   1.387       .  A
C621        C622   1.401       .  A
C622        C623   1.403       .  A
C622        H633   1.084       .  S
C623        C632   1.369       .  A
C623        C624   1.388       .  A
C624        S630   1.704       .  A
C624        C625   1.398       .  A
C625        C626   1.399       .  A
C625        H634   1.083       .  S
C626        C629   1.366       .  A
S627        C628   1.722       .  A
C628        C629   1.383       .  A
C629        H635   1.083       .  S
S630        C631   1.719       .  A
C631        C632   1.384       .  A
C632        H636   1.083       .  S
C637        C638   1.536       .  S
C637        C643   1.545       .  S
C637        C641   1.530       .  S
C637        C898   1.514       .  S
C638        H645   1.086       .  S
C638        C639   1.363       .  D
C639        C640   1.533       .  S
C639        C949   1.468       .  S
C640        C644   1.534       .  S
C640        C642   1.539       .  S
C640        H646   1.111       .  S
C641        H647   1.086       .  S
C641        C642   1.363       .  D
C642        C930   1.468       .  S
C643        H648   1.082       .  S
C643        C644   1.366       .  D
C644        C917   1.474       .  S
C649        C650   1.535       .  S
C649        C655   1.536       .  S
C649        C653   1.533       .  S
C649        C901   1.517       .  S
C650        H657   1.085       .  S
C650        C651   1.371       .  D
C651        C652   1.543       .  S
C651        C866   1.489       .  S
C652        C656   1.541       .  S
C652        C654   1.548       .  S
C652        H658   1.101       .  S
C653        H659   1.085       .  S
C653        C654   1.369       .  D
C654        C885   1.490       .  S
C655        H660   1.082       .  S
C655        C656   1.361       .  D
C656        C853   1.488       .  S
C661        C662   1.541       .  S
C661        C667   1.536       .  S
C661        C665   1.538       .  S
C661        C786   1.518       .  S
C662        H669   1.083       .  S
C662        C663   1.364       .  D
C663        C664   1.534       .  S
C663        C805   1.487       .  S
C664        C668   1.538       .  S
C664        C666   1.539       .  S
C664        H670   1.101       .  S
C665        H671   1.084       .  S
C665        C666   1.369       .  D
C666        C818   1.485       .  S
C667        H672   1.084       .  S
C667        C668   1.369       .  D
C668        C837   1.486       .  S
C673        C674   1.539       .  S
C673        C679   1.535       .  S
C673        C677   1.544       .  S
C673        C789   1.522       .  S
C674        H681   1.086       .  S
C674        C675   1.368       .  D
C675        C676   1.538       .  S
C675        C741   1.481       .  S
C676        C680   1.539       .  S
C676        C678   1.536       .  S
C676        H682   1.110       .  S
C677        H683   1.081       .  S
C677        C678   1.363       .  D
C678        C773   1.475       .  S
C679        H684   1.086       .  S
C679        C680   1.366       .  D
C680        C757   1.478       .  S
Zn685       O690   1.997       .  S
Zn685       O694   2.016   1_554  S
Zn685      O1019   2.022   1_554  S
Zn685      O1007   1.952       .  S
Zn686      O1011   2.020   1_545  S
Zn686       O689   1.958   1_545  S
Zn687       O695   2.014       .  S
Zn687      O1016   2.012   1_554  S
Zn688       O696   2.001   1_554  S
Zn688       O699   2.018       .  S
O689      Zn1003   1.952       .  S
O690        C702   1.272       .  A
O691        C703   1.272       .  A
O692        C704   1.274       .  A
O693      Zn1004   2.020       .  S
O693        C702   1.272       .  A
O694        C704   1.273       .  A
O695        C703   1.273       .  A
O696        C705   1.271       .  A
O697        C706   1.274       .  A
O698      Zn1005   2.012   1_556  S
O698        C705   1.271   1_565  A
O699        C706   1.273       .  A
O700        C707   1.271       .  A
O701      Zn1003   2.022   1_546  S
O701        C707   1.273       .  A
C702        C821   1.469       .  S
C703        C834   1.471       .  S
C704        C933   1.467       .  S
C705        C946   1.464       .  S
C706        C802   1.469       .  S
C707        C914   1.466       .  S
Zn708      O1031   2.022   1_545  S
Zn708       O717   1.995       .  S
Zn708       O724   2.028       .  S
Zn709       O714   2.031       .  S
Zn709       O720   2.038       .  S
Zn709       O712   1.970   1_655  S
Zn710       O718   2.025   1_455  S
Zn710      O1039   2.039   1_455  S
Zn710       O712   1.976       .  S
Zn711       O719   1.998       .  S
Zn711      O1040   2.009   1_545  S
Zn711      O1030   1.953   1_655  S
O712      Zn1029   1.953   1_455  S
O713      Zn1026   2.022       .  S
O713        C725   1.273       .  A
O714        C726   1.276       .  A
O715        C727   1.275       .  A
O716        C725   1.275       .  A
O717        C727   1.271       .  A
O718        C726   1.276       .  A
O719        C728   1.271       .  A
O720        C729   1.274       .  A
O721      Zn1028   2.039   1_655  S
O721        C728   1.276       .  A
O722      Zn1029   2.009       .  S
O722        C729   1.271       .  A
O723        C730   1.274       .  A
O724        C730   1.275       .  A
C725        C754   1.472       .  S
C726        C869   1.476       .  S
C727        C882   1.474       .  S
C728        C850   1.473       .  S
C729        C738   1.469       .  S
C730        C770   1.473       .  S
C731        S737   1.707       .  A
C731        C736   1.388       .  A
C731        C732   1.402       .  A
C732        C733   1.403       .  A
C732        H743   1.083       .  S
C733        C742   1.372       .  A
C733        C734   1.386       .  A
C734        S740   1.708       .  A
C734        C735   1.403       .  A
C735        C736   1.403       .  A
C735        H744   1.083       .  S
C736        C739   1.373       .  A
S737        C738   1.722       .  A
C738        C739   1.385       .  A
C739        H745   1.083       .  S
S740        C741   1.725       .  A
C741        C742   1.387       .  A
C742        H746   1.083       .  S
C747        S753   1.709       .  A
C747        C752   1.387       .  A
C747        C748   1.404       .  A
C748        C749   1.404       .  A
C748        H759   1.083       .  S
C749        C758   1.374       .  A
C749        C750   1.387       .  A
C750        S756   1.706       .  A
C750        C751   1.402       .  A
C751        C752   1.402       .  A
C751        H760   1.083       .  S
C752        C755   1.373       .  A
S753        C754   1.724       .  A
C754        C755   1.385       .  A
C755        H761   1.083       .  S
S756        C757   1.723       .  A
C757        C758   1.386       .  A
C758        H762   1.083       .  S
C763        S769   1.710       .  A
C763        C768   1.387       .  A
C763        C764   1.403       .  A
C764        C765   1.404       .  A
C764        H775   1.083       .  S
C765        C774   1.371       .  A
C765        C766   1.387       .  A
C766        S772   1.709       .  A
C766        C767   1.401       .  A
C767        C768   1.403       .  A
C767        H776   1.083       .  S
C768        C771   1.371       .  A
S769        C770   1.724       .  A
C770        C771   1.386       .  A
C771        H777   1.083       .  S
S772        C773   1.720       .  A
C773        C774   1.386       .  A
C774        H778   1.083       .  S
C779        S785   1.699       .  A
C779        C784   1.385       .  A
C779        C780   1.397       .  A
C780        C781   1.398       .  A
C780        H791   1.082       .  S
C781        C790   1.366       .  A
C781        C782   1.384       .  A
C782        S788   1.711       .  A
C782        C783   1.407       .  A
C783        C784   1.408       .  A
C783        H792   1.082       .  S
C784        C787   1.376       .  A
S785        C786   1.726       .  A
C786        C787   1.392       .  A
C787        H793   1.083       .  S
S788        C789   1.732       .  A
C789        C790   1.390       .  A
C790        H794   1.078       .  S
C795        S801   1.709       .  A
C795        C800   1.387       .  A
C795        C796   1.402       .  A
C796        C797   1.404       .  A
C796        H807   1.083       .  S
C797        C806   1.370       .  A
C797        C798   1.385       .  A
C798        S804   1.701       .  A
C798        C799   1.397       .  A
C799        C800   1.399       .  A
C799        H808   1.083       .  S
C800        C803   1.365       .  A
S801        C802   1.724       .  A
C802        C803   1.384       .  A
C803        H809   1.083       .  S
S804        C805   1.726       .  A
C805        C806   1.391       .  A
C806        H810   1.080       .  S
C811        S817   1.696       .  A
C811        C816   1.386       .  A
C811        C812   1.396       .  A
C812        C813   1.396       .  A
C812        H823   1.083       .  S
C813        C822   1.363       .  A
C813        C814   1.387       .  A
C814        S820   1.710       .  A
C814        C815   1.404       .  A
C815        C816   1.405       .  A
C815        H824   1.083       .  S
C816        C819   1.373       .  A
S817        C818   1.724       .  A
C818        C819   1.391       .  A
C819        H825   1.081       .  S
S820        C821   1.725       .  A
C821        C822   1.383       .  A
C822        H826   1.083       .  S
C827        S833   1.707       .  A
C827        C832   1.387       .  A
C827        C828   1.402       .  A
C828        C829   1.403       .  A
C828        H839   1.082       .  S
C829        C838   1.371       .  A
C829        C830   1.385       .  A
C830        S836   1.701       .  A
C830        C831   1.399       .  A
C831        C832   1.400       .  A
C831        H840   1.082       .  S
C832        C835   1.368       .  A
S833        C834   1.724       .  A
C834        C835   1.386       .  A
C835        H841   1.082       .  S
S836        C837   1.726       .  A
C837        C838   1.390       .  A
C838        H842   1.081       .  S
C843        S849   1.704       .  A
C843        C848   1.387       .  A
C843        C844   1.402       .  A
C844        C845   1.402       .  A
C844        H855   1.083       .  S
C845        C854   1.373       .  A
C845        C846   1.385       .  A
C846        S852   1.698       .  A
C846        C847   1.401       .  A
C847        C848   1.400       .  A
C847        H856   1.083       .  S
C848        C851   1.371       .  A
S849        C850   1.725       .  A
C850        C851   1.386       .  A
C851        H857   1.083       .  S
S852        C853   1.729       .  A
C853        C854   1.389       .  A
C854        H858   1.081       .  S
C859        S865   1.707       .  A
C859        C864   1.385       .  A
C859        C860   1.404       .  A
C860        C861   1.404       .  A
C860        H871   1.083       .  S
C861        C870   1.373       .  A
C861        C862   1.387       .  A
C862        S868   1.707       .  A
C862        C863   1.401       .  A
C863        C864   1.402       .  A
C863        H872   1.083       .  S
C864        C867   1.371       .  A
S865        C866   1.728       .  A
C866        C867   1.390       .  A
C867        H873   1.082       .  S
S868        C869   1.724       .  A
C869        C870   1.389       .  A
C870        H874   1.083       .  S
C875        S881   1.700       .  A
C875        C880   1.387       .  A
C875        C876   1.398       .  A
C876        C877   1.399       .  A
C876        H887   1.083       .  S
C877        C886   1.368       .  A
C877        C878   1.385       .  A
C878        S884   1.707       .  A
C878        C879   1.406       .  A
C879        C880   1.406       .  A
C879        H888   1.083       .  S
C880        C883   1.376       .  A
S881        C882   1.723       .  A
C882        C883   1.389       .  A
C883        H889   1.083       .  S
S884        C885   1.731       .  A
C885        C886   1.388       .  A
C886        H890   1.080       .  S
C891        S897   1.707       .  A
C891        C896   1.385       .  A
C891        C892   1.406       .  A
C892        C893   1.406       .  A
C892        H903   1.082       .  S
C893        C902   1.375       .  A
C893        C894   1.385       .  A
C894        S900   1.694       .  A
C894        C895   1.395       .  A
C895        C896   1.396       .  A
C895        H904   1.082       .  S
C896        C899   1.365       .  A
S897        C898   1.731       .  A
C898        C899   1.387       .  A
C899        H905   1.078       .  S
S900        C901   1.727       .  A
C901        C902   1.391       .  A
C902        H906   1.083       .  S
C907        S913   1.706       .  A
C907        C912   1.388       .  A
C907        C908   1.400       .  A
C908        C909   1.401       .  A
C908        H919   1.083       .  S
C909        C918   1.368       .  A
C909        C910   1.387       .  A
C910        S916   1.707       .  A
C910        C911   1.401       .  A
C911        C912   1.402       .  A
C911        H920   1.083       .  S
C912        C915   1.369       .  A
S913        C914   1.722       .  A
C914        C915   1.384       .  A
C915        H921   1.083       .  S
S916        C917   1.721       .  A
C917        C918   1.386       .  A
C918        H922   1.083       .  S
C923        S929   1.704       .  A
C923        C928   1.388       .  A
C923        C924   1.399       .  A
C924        C925   1.400       .  A
C924        H935   1.083       .  S
C925        C934   1.368       .  A
C925        C926   1.387       .  A
C926        S932   1.708       .  A
C926        C927   1.402       .  A
C927        C928   1.403       .  A
C927        H936   1.083       .  S
C928        C931   1.371       .  A
S929        C930   1.720       .  A
C930        C931   1.383       .  A
C931        H937   1.083       .  S
S932        C933   1.723       .  A
C933        C934   1.384       .  A
C934        H938   1.083       .  S
C939        S945   1.708       .  A
C939        C944   1.387       .  A
C939        C940   1.401       .  A
C940        C941   1.403       .  A
C940        H951   1.084       .  S
C941        C950   1.369       .  A
C941        C942   1.388       .  A
C942        S948   1.704       .  A
C942        C943   1.398       .  A
C943        C944   1.399       .  A
C943        H952   1.083       .  S
C944        C947   1.366       .  A
S945        C946   1.722       .  A
C946        C947   1.383       .  A
C947        H953   1.083       .  S
S948        C949   1.719       .  A
C949        C950   1.384       .  A
C950        H954   1.083       .  S
C955        C956   1.536       .  S
C955        C961   1.545       .  S
C955        C959   1.530       .  S
C955       C1216   1.514       .  S
C956        H963   1.086       .  S
C956        C957   1.363       .  D
C957        C958   1.533       .  S
C957       C1267   1.468       .  S
C958        C962   1.534       .  S
C958        C960   1.539       .  S
C958        H964   1.111       .  S
C959        H965   1.086       .  S
C959        C960   1.363       .  D
C960       C1248   1.468       .  S
C961        H966   1.082       .  S
C961        C962   1.366       .  D
C962       C1235   1.474       .  S
C967        C968   1.535       .  S
C967        C973   1.536       .  S
C967        C971   1.533       .  S
C967       C1219   1.517       .  S
C968        H975   1.085       .  S
C968        C969   1.371       .  D
C969        C970   1.543       .  S
C969       C1184   1.489       .  S
C970        C974   1.541       .  S
C970        C972   1.548       .  S
C970        H976   1.101       .  S
C971        H977   1.085       .  S
C971        C972   1.369       .  D
C972       C1203   1.490       .  S
C973        H978   1.082       .  S
C973        C974   1.361       .  D
C974       C1171   1.488       .  S
C979        C980   1.541       .  S
C979        C985   1.536       .  S
C979        C983   1.538       .  S
C979       C1104   1.518       .  S
C980        H987   1.083       .  S
C980        C981   1.364       .  D
C981        C982   1.534       .  S
C981       C1123   1.487       .  S
C982        C986   1.538       .  S
C982        C984   1.539       .  S
C982        H988   1.101       .  S
C983        H989   1.084       .  S
C983        C984   1.369       .  D
C984       C1136   1.485       .  S
C985        H990   1.084       .  S
C985        C986   1.369       .  D
C986       C1155   1.486       .  S
C991        C992   1.539       .  S
C991        C997   1.535       .  S
C991        C995   1.544       .  S
C991       C1107   1.522       .  S
C992        H999   1.086       .  S
C992        C993   1.368       .  D
C993        C994   1.538       .  S
C993       C1059   1.481       .  S
C994        C998   1.539       .  S
C994        C996   1.536       .  S
C994       H1000   1.110       .  S
C995       H1001   1.081       .  S
C995        C996   1.363       .  D
C996       C1091   1.475       .  S
C997       H1002   1.086       .  S
C997        C998   1.366       .  D
C998       C1075   1.478       .  S
Zn1003     O1008   1.997       .  S
Zn1003     O1012   2.016   1_554  S
Zn1004     O1007   1.958       .  S
Zn1005     O1013   2.014       .  S
Zn1006     O1014   2.001   1_554  S
Zn1006     O1017   2.018       .  S
O1008      C1020   1.272       .  A
O1009      C1021   1.272       .  A
O1010      C1022   1.274       .  A
O1011      C1020   1.272       .  A
O1012      C1022   1.273       .  A
O1013      C1021   1.273       .  A
O1014      C1023   1.271       .  A
O1015      C1024   1.274       .  A
O1016      C1023   1.271       .  A
O1017      C1024   1.273       .  A
O1018      C1025   1.271       .  A
O1019      C1025   1.273       .  A
C1020      C1139   1.469       .  S
C1021      C1152   1.471       .  S
C1022      C1251   1.467       .  S
C1023      C1264   1.464       .  S
C1024      C1120   1.469       .  S
C1025      C1232   1.466       .  S
Zn1026     O1035   1.995       .  S
Zn1026     O1042   2.028       .  S
Zn1027     O1032   2.031       .  S
Zn1027     O1038   2.038       .  S
Zn1027     O1030   1.970   1_665  S
Zn1028     O1036   2.025   1_445  S
Zn1028     O1030   1.976       .  S
Zn1029     O1037   1.998       .  S
O1031      C1043   1.273       .  A
O1032      C1044   1.276       .  A
O1033      C1045   1.275       .  A
O1034      C1043   1.275       .  A
O1035      C1045   1.271       .  A
O1036      C1044   1.276       .  A
O1037      C1046   1.271       .  A
O1038      C1047   1.274       .  A
O1039      C1046   1.276       .  A
O1040      C1047   1.271       .  A
O1041      C1048   1.274       .  A
O1042      C1048   1.275       .  A
C1043      C1072   1.472       .  S
C1044      C1187   1.476       .  S
C1045      C1200   1.474       .  S
C1046      C1168   1.473       .  S
C1047      C1056   1.469       .  S
C1048      C1088   1.473       .  S
C1049      S1055   1.707       .  A
C1049      C1054   1.388       .  A
C1049      C1050   1.402       .  A
C1050      C1051   1.403       .  A
C1050      H1061   1.083       .  S
C1051      C1060   1.372       .  A
C1051      C1052   1.386       .  A
C1052      S1058   1.708       .  A
C1052      C1053   1.403       .  A
C1053      C1054   1.403       .  A
C1053      H1062   1.083       .  S
C1054      C1057   1.373       .  A
S1055      C1056   1.722       .  A
C1056      C1057   1.385       .  A
C1057      H1063   1.083       .  S
S1058      C1059   1.725       .  A
C1059      C1060   1.387       .  A
C1060      H1064   1.083       .  S
C1065      S1071   1.709       .  A
C1065      C1070   1.387       .  A
C1065      C1066   1.404       .  A
C1066      C1067   1.404       .  A
C1066      H1077   1.083       .  S
C1067      C1076   1.374       .  A
C1067      C1068   1.387       .  A
C1068      S1074   1.706       .  A
C1068      C1069   1.402       .  A
C1069      C1070   1.402       .  A
C1069      H1078   1.083       .  S
C1070      C1073   1.373       .  A
S1071      C1072   1.724       .  A
C1072      C1073   1.385       .  A
C1073      H1079   1.083       .  S
S1074      C1075   1.723       .  A
C1075      C1076   1.386       .  A
C1076      H1080   1.083       .  S
C1081      S1087   1.710       .  A
C1081      C1086   1.387       .  A
C1081      C1082   1.403       .  A
C1082      C1083   1.404       .  A
C1082      H1093   1.083       .  S
C1083      C1092   1.371       .  A
C1083      C1084   1.387       .  A
C1084      S1090   1.709       .  A
C1084      C1085   1.401       .  A
C1085      C1086   1.403       .  A
C1085      H1094   1.083       .  S
C1086      C1089   1.371       .  A
S1087      C1088   1.724       .  A
C1088      C1089   1.386       .  A
C1089      H1095   1.083       .  S
S1090      C1091   1.720       .  A
C1091      C1092   1.386       .  A
C1092      H1096   1.083       .  S
C1097      S1103   1.699       .  A
C1097      C1102   1.385       .  A
C1097      C1098   1.397       .  A
C1098      C1099   1.398       .  A
C1098      H1109   1.082       .  S
C1099      C1108   1.366       .  A
C1099      C1100   1.384       .  A
C1100      S1106   1.711       .  A
C1100      C1101   1.407       .  A
C1101      C1102   1.408       .  A
C1101      H1110   1.082       .  S
C1102      C1105   1.376       .  A
S1103      C1104   1.726       .  A
C1104      C1105   1.392       .  A
C1105      H1111   1.083       .  S
S1106      C1107   1.732       .  A
C1107      C1108   1.390       .  A
C1108      H1112   1.078       .  S
C1113      S1119   1.709       .  A
C1113      C1118   1.387       .  A
C1113      C1114   1.402       .  A
C1114      C1115   1.404       .  A
C1114      H1125   1.083       .  S
C1115      C1124   1.370       .  A
C1115      C1116   1.385       .  A
C1116      S1122   1.701       .  A
C1116      C1117   1.397       .  A
C1117      C1118   1.399       .  A
C1117      H1126   1.083       .  S
C1118      C1121   1.365       .  A
S1119      C1120   1.724       .  A
C1120      C1121   1.384       .  A
C1121      H1127   1.083       .  S
S1122      C1123   1.726       .  A
C1123      C1124   1.391       .  A
C1124      H1128   1.080       .  S
C1129      S1135   1.696       .  A
C1129      C1134   1.386       .  A
C1129      C1130   1.396       .  A
C1130      C1131   1.396       .  A
C1130      H1141   1.083       .  S
C1131      C1140   1.363       .  A
C1131      C1132   1.387       .  A
C1132      S1138   1.710       .  A
C1132      C1133   1.404       .  A
C1133      C1134   1.405       .  A
C1133      H1142   1.083       .  S
C1134      C1137   1.373       .  A
S1135      C1136   1.724       .  A
C1136      C1137   1.391       .  A
C1137      H1143   1.081       .  S
S1138      C1139   1.725       .  A
C1139      C1140   1.383       .  A
C1140      H1144   1.083       .  S
C1145      S1151   1.707       .  A
C1145      C1150   1.387       .  A
C1145      C1146   1.402       .  A
C1146      C1147   1.403       .  A
C1146      H1157   1.082       .  S
C1147      C1156   1.371       .  A
C1147      C1148   1.385       .  A
C1148      S1154   1.701       .  A
C1148      C1149   1.399       .  A
C1149      C1150   1.400       .  A
C1149      H1158   1.082       .  S
C1150      C1153   1.368       .  A
S1151      C1152   1.724       .  A
C1152      C1153   1.386       .  A
C1153      H1159   1.082       .  S
S1154      C1155   1.726       .  A
C1155      C1156   1.390       .  A
C1156      H1160   1.081       .  S
C1161      S1167   1.704       .  A
C1161      C1166   1.387       .  A
C1161      C1162   1.402       .  A
C1162      C1163   1.402       .  A
C1162      H1173   1.083       .  S
C1163      C1172   1.373       .  A
C1163      C1164   1.385       .  A
C1164      S1170   1.698       .  A
C1164      C1165   1.401       .  A
C1165      C1166   1.400       .  A
C1165      H1174   1.083       .  S
C1166      C1169   1.371       .  A
S1167      C1168   1.725       .  A
C1168      C1169   1.386       .  A
C1169      H1175   1.083       .  S
S1170      C1171   1.729       .  A
C1171      C1172   1.389       .  A
C1172      H1176   1.081       .  S
C1177      S1183   1.707       .  A
C1177      C1182   1.385       .  A
C1177      C1178   1.404       .  A
C1178      C1179   1.404       .  A
C1178      H1189   1.083       .  S
C1179      C1188   1.373       .  A
C1179      C1180   1.387       .  A
C1180      S1186   1.707       .  A
C1180      C1181   1.401       .  A
C1181      C1182   1.402       .  A
C1181      H1190   1.083       .  S
C1182      C1185   1.371       .  A
S1183      C1184   1.728       .  A
C1184      C1185   1.390       .  A
C1185      H1191   1.082       .  S
S1186      C1187   1.724       .  A
C1187      C1188   1.389       .  A
C1188      H1192   1.083       .  S
C1193      S1199   1.700       .  A
C1193      C1198   1.387       .  A
C1193      C1194   1.398       .  A
C1194      C1195   1.399       .  A
C1194      H1205   1.083       .  S
C1195      C1204   1.368       .  A
C1195      C1196   1.385       .  A
C1196      S1202   1.707       .  A
C1196      C1197   1.406       .  A
C1197      C1198   1.406       .  A
C1197      H1206   1.083       .  S
C1198      C1201   1.376       .  A
S1199      C1200   1.723       .  A
C1200      C1201   1.389       .  A
C1201      H1207   1.083       .  S
S1202      C1203   1.731       .  A
C1203      C1204   1.388       .  A
C1204      H1208   1.080       .  S
C1209      S1215   1.707       .  A
C1209      C1214   1.385       .  A
C1209      C1210   1.406       .  A
C1210      C1211   1.406       .  A
C1210      H1221   1.082       .  S
C1211      C1220   1.375       .  A
C1211      C1212   1.385       .  A
C1212      S1218   1.694       .  A
C1212      C1213   1.395       .  A
C1213      C1214   1.396       .  A
C1213      H1222   1.082       .  S
C1214      C1217   1.365       .  A
S1215      C1216   1.731       .  A
C1216      C1217   1.387       .  A
C1217      H1223   1.078       .  S
S1218      C1219   1.727       .  A
C1219      C1220   1.391       .  A
C1220      H1224   1.083       .  S
C1225      S1231   1.706       .  A
C1225      C1230   1.388       .  A
C1225      C1226   1.400       .  A
C1226      C1227   1.401       .  A
C1226      H1237   1.083       .  S
C1227      C1236   1.368       .  A
C1227      C1228   1.387       .  A
C1228      S1234   1.707       .  A
C1228      C1229   1.401       .  A
C1229      C1230   1.402       .  A
C1229      H1238   1.083       .  S
C1230      C1233   1.369       .  A
S1231      C1232   1.722       .  A
C1232      C1233   1.384       .  A
C1233      H1239   1.083       .  S
S1234      C1235   1.721       .  A
C1235      C1236   1.386       .  A
C1236      H1240   1.083       .  S
C1241      S1247   1.704       .  A
C1241      C1246   1.388       .  A
C1241      C1242   1.399       .  A
C1242      C1243   1.400       .  A
C1242      H1253   1.083       .  S
C1243      C1252   1.368       .  A
C1243      C1244   1.387       .  A
C1244      S1250   1.708       .  A
C1244      C1245   1.402       .  A
C1245      C1246   1.403       .  A
C1245      H1254   1.083       .  S
C1246      C1249   1.371       .  A
S1247      C1248   1.720       .  A
C1248      C1249   1.383       .  A
C1249      H1255   1.083       .  S
S1250      C1251   1.723       .  A
C1251      C1252   1.384       .  A
C1252      H1256   1.083       .  S
C1257      S1263   1.708       .  A
C1257      C1262   1.387       .  A
C1257      C1258   1.401       .  A
C1258      C1259   1.403       .  A
C1258      H1269   1.084       .  S
C1259      C1268   1.369       .  A
C1259      C1260   1.388       .  A
C1260      S1266   1.704       .  A
C1260      C1261   1.398       .  A
C1261      C1262   1.399       .  A
C1261      H1270   1.083       .  S
C1262      C1265   1.366       .  A
S1263      C1264   1.722       .  A
C1264      C1265   1.383       .  A
C1265      H1271   1.083       .  S
S1266      C1267   1.719       .  A
C1267      C1268   1.384       .  A
C1268      H1272   1.083       .  S
