geometry optimzed in LAMMPS
_audit_creation_date              2020-12-01 
_audit_creation_method            'lammps2cif' 
_symmetry_space_group_name_H-M    'P1' 
_symmetry_Int_Tables_number       1 
_symmetry_cell_setting            triclinic 
loop_ 
_symmetry_equiv_pos_as_xyz 
  x,y,z 
_cell_length_a                    37.92031713 
_cell_length_b                    38.101898345468044 
_cell_length_c                    37.47039700769784 
_cell_angle_alpha                 90.82509113431854 
_cell_angle_beta                  89.65335487460167 
_cell_angle_gamma                 120.21928235517471 
loop_ 
_atom_site_label 
_atom_site_type_symbol 
_atom_site_fract_x 
_atom_site_fract_y 
_atom_site_fract_z 
_atom_site_charge 
Fe1        Fe  0.14770693  0.28458242  0.25045818     1.65800
Fe2        Fe  0.14788790  0.19472715  0.24937402     1.73200
Fe3        Fe  0.05728949  0.19414968  0.24998048     1.54400
O4          O  0.05302691  0.23261091  0.28726150    -0.80300
O5          O  0.11474449  0.15791840  0.20708155    -0.78600
O6          O  0.11451976  0.28813964  0.29272818    -0.82800
O7          O  0.10899579  0.28865882  0.21436276    -0.77600
O8          O  0.05385019  0.15747308  0.29141979    -0.79400
O9          O  0.19095151  0.23342863  0.21328635    -0.82200
C10         C  0.07490746  0.26426473  0.20009499     0.98600
C11         C  0.07738843  0.26673036  0.30162833     1.06000
O12         O  0.11761284  0.22448222  0.24993253    -1.11100
O13         O  0.18458061  0.22801908  0.29159291    -0.73600
O14         O  0.19082470  0.28920290  0.28657084    -0.77100
O15         O  0.05356674  0.22725006  0.20856910    -0.77700
C16         C  0.20054617  0.26512803  0.30047969     0.97500
O17         O  0.18450585  0.28822991  0.20826826    -0.75700
O18         O  0.10932309  0.15174053  0.28544143    -0.80900
C19         C  0.07755844  0.14191605  0.19824897     1.00100
C20         C  0.07528670  0.14189967  0.29979506     1.06100
O21         O  0.05309167  0.15141245  0.21269415    -0.76500
C22         C  0.20062316  0.26724709  0.19940694     1.04400
C23         C  0.00660934  0.33267079  0.07854022     0.87900
C24         C  0.29728418  0.31243879  0.09582614    -0.52400
C25         C  0.29806683  0.31408119  0.13213902     0.10800
C26         C  0.00765947  0.33538171  0.14830233     0.21800
C27         C  0.02928219  0.04274394  0.09456246    -0.53100
C28         C  0.02954819  0.04389518  0.13094199     0.10900
C29         C  0.02771336  0.31124363  0.09578311    -0.52600
C30         C  0.02797961  0.31283658  0.13215895     0.11500
H31         H  0.26901307  0.29822997  0.08062219     0.16000
H32         H  0.00805372  0.00317690  0.17796780     0.01700
H33         H  0.04335217  0.07002310  0.07855141     0.16300
H34         H  0.04125451  0.29608214  0.08153156     0.16100
C35         C  0.00666471  0.00515289  0.42130229     0.87900
C36         C  0.02833204  0.04768720  0.40403472    -0.52400
C37         C  0.02851734  0.04628376  0.36765927     0.10800
C38         C  0.00754905  0.00332491  0.35154513     0.21800
C39         C  0.29728414  0.31669613  0.40395846    -0.53100
C40         C  0.29800028  0.31563583  0.36768235     0.10900
C41         C  0.02853862  0.31697232  0.40531952    -0.52600
C42         C  0.02886859  0.31613870  0.36892540     0.11500
H43         H  0.04179940  0.07644883  0.41828461     0.16000
H44         H  0.00781664  0.00247650  0.32186808     0.01700
H45         H  0.26901454  0.30312234  0.41909782     0.16300
H46         H  0.04228057  0.30348510  0.42139416     0.16100
Fe47       Fe  0.18549489  0.04693369  0.74939007     1.65800
Fe48       Fe  0.18533229  0.13692761  0.75033877     1.73200
Fe49       Fe  0.27609755  0.13744755  0.74994412     1.54400
O50         O  0.28043088  0.09994206  0.78694094    -0.80300
O51         O  0.21921043  0.17429913  0.70922213    -0.78600
O52         O  0.21955045  0.04346604  0.79036080    -0.82800
O53         O  0.22339819  0.04270823  0.71168687    -0.77600
O54         O  0.27979584  0.17530451  0.79164204    -0.79400
O55         O  0.14296797  0.09884508  0.71300684    -0.82200
C56         C  0.25804600  0.06667064  0.69832020     0.98200
C57         C  0.25635627  0.06546320  0.80009140     1.06000
O58         O  0.21564121  0.10709801  0.74988740    -1.11100
O59         O  0.14764875  0.10316644  0.79143862    -0.73600
O60         O  0.14335507  0.04264311  0.78698107    -0.77100
O61         O  0.27999728  0.10341045  0.70826911    -0.77700
C62         C  0.13277948  0.06655411  0.80071168     0.97500
O63         O  0.14755221  0.04281071  0.70844534    -0.75700
O64         O  0.22326574  0.17937358  0.78780623    -0.80900
C65         C  0.25606220  0.18935500  0.69961597     1.00100
C66         C  0.25785203  0.19013649  0.80133394     1.06100
O67         O  0.28027241  0.17921327  0.71291786    -0.76500
C68         C  0.13244442  0.06435409  0.69931055     1.04400
C69         C  0.32674526  0.33232051  0.92162092     0.87900
C70         C  0.30512338  0.28899178  0.90531084    -0.52400
C71         C  0.30509646  0.28810306  0.86891369     0.10800
C72         C  0.32614074  0.33012572  0.85184575     0.21800
C73         C  0.03616622  0.02031066  0.90453151    -0.53100
C74         C  0.03561738  0.01895634  0.86821711     0.10900
C75         C  0.30471204  0.01951939  0.90442131    -0.52600
C76         C  0.30464269  0.01818296  0.86803999     0.11500
H77         H  0.29148937  0.26159139  0.92115819     0.16000
H78         H  0.32597916  0.32922955  0.82216518     0.01700
H79         H  0.06433996  0.03497550  0.91987254     0.16300
H80         H  0.29027300  0.03376461  0.91872763     0.16100
C81         C  0.99328467  0.32633775  0.57818218     0.87900
C82         C  0.03596161  0.01381823  0.59554864    -0.52400
C83         C  0.03521387  0.01475888  0.63183707     0.10800
C84         C  0.99233009  0.32798655  0.64794823     0.21800
C85         C  0.30396978  0.28376346  0.59536565    -0.53100
C86         C  0.30373770  0.28505546  0.63173929     0.10900
C87         C  0.30569334  0.01544791  0.59424742    -0.52600
C88         C  0.30536012  0.01622227  0.63065687     0.11500
H89         H  0.06422837  0.02691004  0.58042450     0.16000
H90         H  0.99205034  0.32875662  0.67762528     0.01700
H91         H  0.28986924  0.25501547  0.58107228     0.16300
H92         H  0.29262304  0.02962325  0.57821649     0.16100
C93         C  0.27353457  0.22195003  0.82797464    -0.11900
C94         C  0.28738912  0.25103060  0.84792131    -0.13400
C95         C  0.10109000  0.05084580  0.82707020    -0.11900
C96         C  0.07213578  0.03671185  0.84686740    -0.13400
C97         C  0.27203277  0.04987418  0.82642073    -0.11900
C98         C  0.28629533  0.03573064  0.84640736    -0.13400
C99         C  0.28562891  0.24911995  0.65335949    -0.11900
C100        C  0.27162046  0.22066035  0.67330023    -0.13400
C101        C  0.07159916  0.03330466  0.65334695    -0.11900
C102        C  0.10058436  0.04815953  0.67312226    -0.13400
C103        C  0.28778212  0.03576868  0.65152645    -0.11900
C104        C  0.27382559  0.05079596  0.67155082    -0.13400
C105        C  0.31534755  0.29792912  0.47785732    -0.11900
C106        C  0.00416392  0.00299716  0.46199323     0.10200
C107        C  0.02238170  0.03751495  0.48457154    -0.11900
C108        C  0.01811583  0.03357468  0.52160830    -0.11900
C109        C  0.99586095  0.32851558  0.53747289     0.10200
C110        C  0.31095453  0.29400076  0.51487892    -0.11900
H111        H  0.30095636  0.27067396  0.46134652     0.14200
H112        H  0.04021731  0.06779567  0.47436051     0.14200
H113        H  0.03260336  0.06081570  0.53813038     0.14200
H114        H  0.29312703  0.26370853  0.52505067     0.14200
C115        C  0.01883234  0.31281113  0.01528704    -0.11900
C116        C  0.33734128  0.33237491  0.03784081     0.10200
C117        C  0.31847411  0.01863398  0.02193065    -0.11900
C118        C  0.31439684  0.01874658  0.98488614    -0.11900
C119        C  0.32921193  0.33250096  0.96233686     0.10200
C120        C  0.01486807  0.31302692  0.97824101    -0.11900
H121        H  0.03344790  0.29706796  0.02551148     0.14200
H122        H  0.30667248  0.03397816  0.03843394     0.14200
H123        H  0.29989490  0.03459791  0.97465464     0.14200
H124        H  0.02683486  0.29783487  0.96174037     0.14200
C125        C  0.04730152  0.29740513  0.34817780    -0.11900
C126        C  0.06164339  0.28268407  0.32828412    -0.13400
C127        C  0.23248228  0.28129363  0.32658595    -0.11900
C128        C  0.26156731  0.29645784  0.34624344    -0.13400
C129        C  0.04597021  0.08209824  0.34595166    -0.11900
C130        C  0.05971959  0.11050535  0.32598829    -0.13400
C131        C  0.04539719  0.29444159  0.15384765    -0.11900
C132        C  0.05919063  0.27987346  0.17385340    -0.13400
C133        C  0.26168235  0.29709981  0.15365264    -0.11900
C134        C  0.23264110  0.28320773  0.17335336    -0.13400
C135        C  0.06194190  0.11019373  0.17158155    -0.11900
C136        C  0.04788213  0.08109579  0.15169005    -0.13400
Fe137      Fe  0.14771396  0.61794186  0.25048216     1.65800
Fe138      Fe  0.14788836  0.52808180  0.24936179     1.73200
Fe139      Fe  0.05729212  0.52750537  0.24998234     1.54400
O140        O  0.05302528  0.56595413  0.28727694    -0.80300
O141        O  0.11474828  0.49129310  0.20705870    -0.78600
O142        O  0.11451338  0.62148761  0.29274757    -0.82800
O143        O  0.10901441  0.62202792  0.21437871    -0.77600
O144        O  0.05384476  0.49080703  0.29140848    -0.79400
O145        O  0.19095527  0.56679408  0.21328275    -0.82200
C146        C  0.07492579  0.59763707  0.20010862     0.98600
C147        C  0.07738226  0.60007369  0.30164647     1.06000
O148        O  0.11761667  0.55783970  0.24993780    -1.11100
O149        O  0.18458020  0.56135770  0.29158727    -0.73600
O150        O  0.19081533  0.62254235  0.28660257    -0.77100
O151        O  0.05357837  0.56062292  0.20858235    -0.77700
C152        C  0.20053875  0.59846071  0.30049433     0.97500
O153        O  0.18453485  0.62161288  0.20830054    -0.75700
O154        O  0.10931777  0.48507694  0.28541803    -0.80900
C155        C  0.07756064  0.47528665  0.19823121     1.00100
C156        C  0.07527941  0.47522749  0.29977319     1.06100
O157        O  0.05309328  0.48477841  0.21268258    -0.76500
C158        C  0.20064063  0.60062433  0.19942166     1.04400
C159        C  0.00661393  0.66600696  0.07853659     0.87900
C160        C  0.29728790  0.64577757  0.09582302    -0.52400
C161        C  0.29807122  0.64742700  0.13213642     0.10800
C162        C  0.00766427  0.66872910  0.14829829     0.21800
C163        C  0.02930028  0.37608598  0.09457339    -0.53100
C164        C  0.02955689  0.37723951  0.13095251     0.10900
C165        C  0.02771867  0.64458370  0.09578383    -0.52600
C166        C  0.02798582  0.64618337  0.13215943     0.11500
H167        H  0.26901669  0.63156961  0.08061915     0.16000
H168        H  0.00802850  0.33652136  0.17798024     0.01700
H169        H  0.04338459  0.40336420  0.07856117     0.16300
H170        H  0.04126406  0.62942478  0.08153470     0.16100
C171        C  0.00664506  0.33846580  0.42128242     0.87900
C172        C  0.02832568  0.38100176  0.40401355    -0.52400
C173        C  0.02851746  0.37959913  0.36763684     0.10800
C174        C  0.00754394  0.33663949  0.35152492     0.21800
C175        C  0.29727486  0.65003327  0.40397799    -0.53100
C176        C  0.29798728  0.64896832  0.36770149     0.10900
C177        C  0.02853999  0.65033012  0.40533509    -0.52600
C178        C  0.02886403  0.64948945  0.36894089     0.11500
H179        H  0.04178940  0.40976282  0.41826401     0.16000
H180        H  0.00781667  0.33578984  0.32184803     0.01700
H181        H  0.26900687  0.63645386  0.41911986     0.16300
H182        H  0.04228849  0.63684975  0.42140988     0.16100
Fe183      Fe  0.18550122  0.38025537  0.74939503     1.65800
Fe184      Fe  0.18531562  0.47024348  0.75032397     1.73200
Fe185      Fe  0.27609808  0.47078736  0.74992922     1.54400
O186        O  0.28044945  0.43333073  0.78696756    -0.80300
O187        O  0.21921462  0.50765419  0.70923793    -0.78600
O188        O  0.21961047  0.37679629  0.79032531    -0.82800
O189        O  0.22336640  0.37603818  0.71164599    -0.77600
O190        O  0.27980129  0.50869027  0.79158835    -0.79400
O191        O  0.14299348  0.43218688  0.71295731    -0.82200
C192        C  0.25803438  0.39998969  0.69830773     0.98200
C193        C  0.25640036  0.39882722  0.80008739     1.06000
O194        O  0.21563790  0.44042349  0.74987918    -1.11100
O195        O  0.14759745  0.43645133  0.79139352    -0.73600
O196        O  0.14340873  0.37596903  0.78703480    -0.77100
O197        O  0.28000847  0.43671470  0.70828984    -0.77700
C198        C  0.13278730  0.39986432  0.80072081     0.97500
O199        O  0.14749415  0.37610053  0.70849131    -0.75700
O200        O  0.22321270  0.51266376  0.78782261    -0.80900
C201        C  0.25605092  0.52267821  0.69959767     1.00100
C202        C  0.25782675  0.52347556  0.80131396     1.06100
O203        O  0.28025337  0.51250666  0.71286428    -0.76500
C204        C  0.13242987  0.39766706  0.69930707     1.04400
C205        C  0.32674430  0.66564922  0.92161633     0.87900
C206        C  0.30511276  0.62232170  0.90530178    -0.52400
C207        C  0.30507941  0.62143775  0.86890365     0.10800
C208        C  0.32612864  0.66346309  0.85184075     0.21800
C209        C  0.03617770  0.35364305  0.90454954    -0.53100
C210        C  0.03563802  0.35229117  0.86823527     0.10900
C211        C  0.30472723  0.35285907  0.90442421    -0.52600
C212        C  0.30466981  0.35152856  0.86804228     0.11500
H213        H  0.29147662  0.59491942  0.92114645     0.16000
H214        H  0.32596310  0.66257174  0.82216014     0.01700
H215        H  0.06434767  0.36830440  0.91989606     0.16300
H216        H  0.29028887  0.36710724  0.91872727     0.16100
C217        C  0.99329483  0.65969075  0.57819959     0.87900
C218        C  0.03595110  0.34713803  0.59553369    -0.52400
C219        C  0.03520574  0.34808229  0.63182268     0.10800
C220        C  0.99233987  0.66132744  0.64796615     0.21800
C221        C  0.30397434  0.61711437  0.59537769    -0.53100
C222        C  0.30374064  0.61839988  0.63175043     0.10900
C223        C  0.30568287  0.34876833  0.59423280    -0.52600
C224        C  0.30535045  0.34954494  0.63064207     0.11500
H225        H  0.06421700  0.36022583  0.58040869     0.16000
H226        H  0.99206048  0.66209190  0.67764328     0.01700
H227        H  0.28986587  0.58836766  0.58108227     0.16300
H228        H  0.29261193  0.36294245  0.57820111     0.16100
C229        C  0.27350484  0.55529098  0.82795372    -0.11900
C230        C  0.28736197  0.58436859  0.84790462    -0.13400
C231        C  0.10111045  0.38416627  0.82709042    -0.11900
C232        C  0.07216036  0.37004234  0.84689174    -0.13400
C233        C  0.27208885  0.38324704  0.82641630    -0.11900
C234        C  0.28634438  0.36909562  0.84640352    -0.13400
C235        C  0.28561910  0.58245827  0.65336063    -0.11900
C236        C  0.27160417  0.55398810  0.67328847    -0.13400
C237        C  0.07159161  0.36662178  0.65333374    -0.11900
C238        C  0.10057375  0.38146970  0.67311354    -0.13400
C239        C  0.28777012  0.36909099  0.65150976    -0.11900
C240        C  0.27381198  0.38411733  0.67153380    -0.13400
C241        C  0.31536767  0.63128419  0.47787564    -0.11900
C242        C  0.00413644  0.33630776  0.46197446     0.10200
C243        C  0.02238486  0.37082381  0.48455280    -0.11900
C244        C  0.01812170  0.36688639  0.52159024    -0.11900
C245        C  0.99587212  0.66187147  0.53749054     0.10200
C246        C  0.31098068  0.62735592  0.51489688    -0.11900
H247        H  0.30098631  0.60402777  0.46136595     0.14200
H248        H  0.04024698  0.40110093  0.47434045     0.14200
H249        H  0.03263416  0.39412719  0.53811123     0.14200
H250        H  0.29316972  0.59706156  0.52506749     0.14200
C251        C  0.01883536  0.64613761  0.01528394    -0.11900
C252        C  0.33734980  0.66570806  0.03783677     0.10200
C253        C  0.31848525  0.35198390  0.02193846    -0.11900
C254        C  0.31440468  0.35208938  0.98489348    -0.11900
C255        C  0.32921867  0.66583096  0.96233235     0.10200
C256        C  0.01486998  0.64635169  0.97823676    -0.11900
H257        H  0.03344453  0.63038890  0.02551052     0.14200
H258        H  0.30668978  0.36733571  0.03843904     0.14200
H259        H  0.29990785  0.36794418  0.97465821     0.14200
H260        H  0.02683014  0.63115352  0.96173608     0.14200
C261        C  0.04729299  0.63075053  0.34819377    -0.11900
C262        C  0.06163254  0.61602467  0.32830203    -0.13400
C263        C  0.23247014  0.61461350  0.32660461    -0.11900
C264        C  0.26155330  0.62977883  0.34626412    -0.13400
C265        C  0.04596723  0.41541332  0.34592434    -0.11900
C266        C  0.05971162  0.44382122  0.32595940    -0.13400
C267        C  0.04541545  0.62780420  0.15385244    -0.11900
C268        C  0.05921481  0.61324677  0.17386318    -0.13400
C269        C  0.26168923  0.63046238  0.15365415    -0.11900
C270        C  0.23265507  0.61658486  0.17336349    -0.13400
C271        C  0.06194227  0.44355602  0.17157107    -0.11900
C272        C  0.04788667  0.41444553  0.15169380    -0.13400
Fe273      Fe  0.14774581  0.95127685  0.25047726     1.65800
Fe274      Fe  0.14789165  0.86139726  0.24938388     1.73200
Fe275      Fe  0.05730530  0.86085031  0.24997265     1.54400
O276        O  0.05304502  0.89928681  0.28728276    -0.80300
O277        O  0.11473348  0.82457945  0.20710064    -0.78600
O278        O  0.11451945  0.95484750  0.29270956    -0.82800
O279        O  0.10908575  0.95536922  0.21433316    -0.77600
O280        O  0.05382960  0.82412248  0.29138368    -0.79400
O281        O  0.19094797  0.90007059  0.21328357    -0.82200
C282        C  0.07497993  0.93099166  0.20008386     0.98600
C283        C  0.07739677  0.93342171  0.30162970     1.06000
O284        O  0.11763283  0.89117158  0.24994071    -1.11100
O285        O  0.18460702  0.89469578  0.29159190    -0.73600
O286        O  0.19081030  0.95586992  0.28663574    -0.77100
O287        O  0.05360419  0.89399026  0.20858661    -0.77700
C288        C  0.20054760  0.93179278  0.30051480     0.97500
O289        O  0.18459863  0.95493335  0.20832858    -0.75700
O290        O  0.10932869  0.81842717  0.28546064    -0.80900
C291        C  0.07756134  0.80861584  0.19823478     1.00100
C292        C  0.07527185  0.80856252  0.29978265     1.06100
O293        O  0.05310447  0.81814152  0.21265397    -0.76500
C294        C  0.20066721  0.93391502  0.19943594     1.04400
C295        C  0.00661123  0.99932764  0.07852810     0.87900
C296        C  0.29728893  0.97907203  0.09582170    -0.52400
C297        C  0.29808098  0.98071524  0.13213511     0.10800
C298        C  0.00767725  0.00203760  0.14828978     0.21800
C299        C  0.02930444  0.70942473  0.09456511    -0.53100
C300        C  0.02956072  0.71058340  0.13094389     0.10900
C301        C  0.02774452  0.97792519  0.09576301    -0.52600
C302        C  0.02801899  0.97951838  0.13213848     0.11500
H303        H  0.26901417  0.96485266  0.08062301     0.16000
H304        H  0.00803462  0.66987401  0.17797613     0.01700
H305        H  0.04338947  0.73670080  0.07855013     0.16300
H306        H  0.04130417  0.96278445  0.08150691     0.16100
C307        C  0.00663841  0.67181587  0.42129831     0.87900
C308        C  0.02830631  0.71434873  0.40402563    -0.52400
C309        C  0.02849507  0.71294099  0.36764916     0.10800
C310        C  0.00752911  0.66997977  0.35154057     0.21800
C311        C  0.29729981  0.98337190  0.40398537    -0.53100
C312        C  0.29800833  0.98231051  0.36770912     0.10900
C313        C  0.02856533  0.98366877  0.40533279    -0.52600
C314        C  0.02888568  0.98283233  0.36893830     0.11500
H315        H  0.04176698  0.74311106  0.41827387     0.16000
H316        H  0.00779890  0.66912682  0.32186362     0.01700
H317        H  0.26903339  0.96978894  0.41912960     0.16300
H318        H  0.04231530  0.97018645  0.42140328     0.16100
Fe319      Fe  0.18550462  0.71360196  0.74941241     1.65800
Fe320      Fe  0.18531948  0.80358554  0.75032792     1.73200
Fe321      Fe  0.27609734  0.80412751  0.74993522     1.54400
O322        O  0.28045389  0.76664600  0.78694397    -0.80300
O323        O  0.21919873  0.84096503  0.70921817    -0.78600
O324        O  0.21958703  0.71015645  0.79037095    -0.82800
O325        O  0.22339681  0.70937757  0.71169541    -0.77600
O326        O  0.27979320  0.84199602  0.79161914    -0.79400
O327        O  0.14297606  0.76550378  0.71298572    -0.82200
C328        C  0.25804332  0.73333962  0.69832510     0.98200
C329        C  0.25639203  0.73216597  0.80009829     1.06000
O330        O  0.21563960  0.77376645  0.74988849    -1.11100
O331        O  0.14762387  0.76982066  0.79141873    -0.73600
O332        O  0.14338552  0.70931882  0.78702056    -0.77100
O333        O  0.27999545  0.77008053  0.70827008    -0.77700
C334        C  0.13278555  0.73322290  0.80072332     0.97500
O335        O  0.14752862  0.70944789  0.70848332    -0.75700
O336        O  0.22323885  0.84602615  0.78780381    -0.80900
C337        C  0.25604720  0.85601858  0.69960539     1.00100
C338        C  0.25783451  0.85680752  0.80132093     1.06100
O339        O  0.28025860  0.84587501  0.71289922    -0.76500
C340        C  0.13243850  0.73099754  0.69931777     1.04400
C341        C  0.32673808  0.99898593  0.92161117     0.87900
C342        C  0.30511518  0.95565595  0.90530341    -0.52400
C343        C  0.30507916  0.95476540  0.86890626     0.10800
C344        C  0.32611545  0.99678590  0.85183644     0.21800
C345        C  0.03617328  0.68696672  0.90454046    -0.53100
C346        C  0.03562796  0.68562110  0.86822652     0.10900
C347        C  0.30472981  0.68619634  0.90442763    -0.52600
C348        C  0.30466601  0.68486908  0.86804604     0.11500
H349        H  0.29148561  0.92825668  0.92115193     0.16000
H350        H  0.32594510  0.99588743  0.82215585     0.01700
H351        H  0.06434561  0.70162485  0.91988374     0.16300
H352        H  0.29029515  0.70044545  0.91873463     0.16100
C353        C  0.99329713  0.99301908  0.57819612     0.87900
C354        C  0.03596031  0.68048318  0.59555016    -0.52400
C355        C  0.03521484  0.68141964  0.63183894     0.10800
C356        C  0.99233762  0.99466161  0.64796159     0.21800
C357        C  0.30397962  0.95044362  0.59537598    -0.53100
C358        C  0.30374383  0.95173250  0.63174883     0.10900
C359        C  0.30569762  0.68212350  0.59425627    -0.52600
C360        C  0.30536585  0.68289454  0.63066590     0.11500
H361        H  0.06422595  0.69357104  0.58042468     0.16000
H362        H  0.99205620  0.99542891  0.67763866     0.01700
H363        H  0.28987207  0.92169628  0.58108194     0.16300
H364        H  0.29262808  0.69630181  0.57822845     0.16100
C365        C  0.27351038  0.88861762  0.82796319    -0.11900
C366        C  0.28736579  0.91769395  0.84791384    -0.13400
C367        C  0.10110173  0.71752103  0.82708512    -0.11900
C368        C  0.07214796  0.70338395  0.84688144    -0.13400
C369        C  0.27208079  0.71658790  0.82642777    -0.11900
C370        C  0.28633725  0.70243748  0.84641438    -0.13400
C371        C  0.28562079  0.91579377  0.65336286    -0.11900
C372        C  0.27160308  0.88732733  0.67329498    -0.13400
C373        C  0.07160082  0.69995040  0.65334744    -0.11900
C374        C  0.10058374  0.71479652  0.67312501    -0.13400
C375        C  0.28778599  0.70243817  0.65153755    -0.11900
C376        C  0.27382378  0.71746329  0.67155817    -0.13400
C377        C  0.31540609  0.96461597  0.47787456    -0.11900
C378        C  0.00413782  0.66966287  0.46199118     0.10200
C379        C  0.02237812  0.70418074  0.48456876    -0.11900
C380        C  0.01812099  0.70024335  0.52160736    -0.11900
C381        C  0.99588014  0.99520028  0.53748862     0.10200
C382        C  0.31101094  0.96068452  0.51489465    -0.11900
H383        H  0.30104041  0.93736023  0.46136323     0.14200
H384        H  0.04022767  0.73445834  0.47435467     0.14200
H385        H  0.03262619  0.72748455  0.53812831     0.14200
H386        H  0.29321363  0.93038859  0.52506416     0.14200
C387        C  0.01883408  0.97947413  0.01527161    -0.11900
C388        C  0.33733744  0.99903051  0.03782900     0.10200
C389        C  0.31850490  0.68532615  0.02193314    -0.11900
C390        C  0.31442501  0.68543153  0.98488905    -0.11900
C391        C  0.32921135  0.99916754  0.96232606     0.10200
C392        C  0.01487247  0.97969638  0.97822592    -0.11900
H393        H  0.03345060  0.96373037  0.02549259     0.14200
H394        H  0.30671705  0.70068590  0.03843246     0.14200
H395        H  0.29993796  0.70129593  0.97465546     0.14200
H396        H  0.02684277  0.96450965  0.96172239     0.14200
C397        C  0.04731272  0.96409651  0.34818439    -0.11900
C398        C  0.06165031  0.94937355  0.32828727    -0.13400
C399        C  0.23248074  0.94794651  0.32662412    -0.11900
C400        C  0.26157032  0.96311633  0.34627669    -0.13400
C401        C  0.04594344  0.74875203  0.34593456    -0.11900
C402        C  0.05969182  0.77715901  0.32596962    -0.13400
C403        C  0.04547004  0.96115301  0.15382207    -0.11900
C404        C  0.05927742  0.94660281  0.17383207    -0.13400
C405        C  0.26170524  0.96373405  0.15365985    -0.11900
C406        C  0.23267725  0.94985733  0.17337513    -0.13400
C407        C  0.06194715  0.77689593  0.17156525    -0.11900
C408        C  0.04789257  0.74779062  0.15168249    -0.13400
Fe409      Fe  0.48104020  0.28458242  0.25045819     1.65800
Fe410      Fe  0.48122119  0.19472719  0.24937401     1.73200
Fe411      Fe  0.39062275  0.19414968  0.24998048     1.54400
O412        O  0.38636029  0.23261092  0.28726151    -0.80300
O413        O  0.44807779  0.15791837  0.20708156    -0.78600
O414        O  0.44785315  0.28813964  0.29272820    -0.82800
O415        O  0.44232901  0.28865881  0.21436280    -0.77600
O416        O  0.38718337  0.15747304  0.29141979    -0.79400
O417        O  0.52428472  0.23342864  0.21328633    -0.82200
C418        C  0.40824070  0.26426472  0.20009500     0.98600
C419        C  0.41072183  0.26673036  0.30162836     1.06000
O420        O  0.45094610  0.22448222  0.24993253    -1.11100
O421        O  0.51791400  0.22801910  0.29159286    -0.73600
O422        O  0.52415798  0.28920287  0.28657087    -0.77100
O423        O  0.38689996  0.22725006  0.20856911    -0.77700
C424        C  0.53387953  0.26512804  0.30047966     0.97500
O425        O  0.51783905  0.28822991  0.20826825    -0.75700
O426        O  0.44265639  0.15174069  0.28544145    -0.80900
C427        C  0.41089175  0.14191605  0.19824897     1.00100
C428        C  0.40861998  0.14189973  0.29979506     1.06100
O429        O  0.38642499  0.15141248  0.21269416    -0.76500
C430        C  0.53395636  0.26724710  0.19940692     1.04400
C431        C  0.33994262  0.33267079  0.07854022     0.87900
C432        C  0.63061752  0.31243872  0.09582612    -0.52400
C433        C  0.63140012  0.31408111  0.13213902     0.10800
C434        C  0.34099283  0.33538172  0.14830233     0.21800
C435        C  0.36261560  0.04274394  0.09456247    -0.53100
C436        C  0.36288162  0.04389518  0.13094199     0.10900
C437        C  0.36104661  0.31124357  0.09578308    -0.52600
C438        C  0.36131290  0.31283656  0.13215894     0.11500
H439        H  0.60234645  0.29822994  0.08062215     0.16000
H440        H  0.34138717  0.00317689  0.17796780     0.01700
H441        H  0.37668559  0.07002309  0.07855141     0.16300
H442        H  0.37458769  0.29608211  0.08153158     0.16100
C443        C  0.33999796  0.00515291  0.42130229     0.87900
C444        C  0.36166530  0.04768724  0.40403473    -0.52400
C445        C  0.36185069  0.04628382  0.36765928     0.10800
C446        C  0.34088235  0.00332496  0.35154512     0.21800
C447        C  0.63061748  0.31669613  0.40395846    -0.53100
C448        C  0.63133364  0.31563585  0.36768235     0.10900
C449        C  0.36187198  0.31697228  0.40531954    -0.52600
C450        C  0.36220197  0.31613869  0.36892539     0.11500
H451        H  0.37513259  0.07644886  0.41828461     0.16000
H452        H  0.34114996  0.00247656  0.32186808     0.01700
H453        H  0.60234788  0.30312228  0.41909780     0.16300
H454        H  0.37561385  0.30348507  0.42139413     0.16100
Fe455      Fe  0.51882829  0.04693369  0.74939005     1.65800
Fe456      Fe  0.51866562  0.13692759  0.75033878     1.73200
Fe457      Fe  0.60943095  0.13744758  0.74994413     1.54400
O458        O  0.61376432  0.09994207  0.78694093    -0.80300
O459        O  0.55254368  0.17429910  0.70922213    -0.78600
O460        O  0.55288388  0.04346605  0.79036080    -0.82800
O461        O  0.55673166  0.04270825  0.71168687    -0.77600
O462        O  0.61312925  0.17530453  0.79164206    -0.79400
O463        O  0.47630124  0.09884505  0.71300689    -0.82200
C464        C  0.59137947  0.06667071  0.69832021     0.98200
C465        C  0.58968971  0.06546321  0.80009139     1.06000
O466        O  0.54897458  0.10709801  0.74988740    -1.11100
O467        O  0.48098215  0.10316644  0.79143867    -0.73600
O468        O  0.47668840  0.04264308  0.78698101    -0.77100
O469        O  0.61333072  0.10341050  0.70826913    -0.77700
C470        C  0.46611286  0.06655410  0.80071168     0.97500
O471        O  0.48088564  0.04281077  0.70844531    -0.75700
O472        O  0.55659912  0.17937356  0.78780620    -0.80900
C473        C  0.58939546  0.18935500  0.69961598     1.00100
C474        C  0.59118541  0.19013648  0.80133393     1.06100
O475        O  0.61360570  0.17921328  0.71291786    -0.76500
C476        C  0.46577776  0.06435410  0.69931057     1.04400
C477        C  0.66007861  0.33232050  0.92162091     0.87900
C478        C  0.63845675  0.28899179  0.90531084    -0.52400
C479        C  0.63842990  0.28810306  0.86891369     0.10800
C480        C  0.65947417  0.33012571  0.85184575     0.21800
C481        C  0.36949959  0.02031067  0.90453150    -0.53100
C482        C  0.36895076  0.01895639  0.86821711     0.10900
C483        C  0.63804539  0.01951940  0.90442131    -0.52600
C484        C  0.63797604  0.01818292  0.86803998     0.11500
H485        H  0.62482269  0.26159139  0.92115819     0.16000
H486        H  0.65931262  0.32922954  0.82216518     0.01700
H487        H  0.39767334  0.03497545  0.91987255     0.16300
H488        H  0.62360642  0.03376469  0.91872759     0.16100
C489        C  0.32661800  0.32633774  0.57818218     0.87900
C490        C  0.36929497  0.01381823  0.59554863    -0.52400
C491        C  0.36854724  0.01475887  0.63183705     0.10800
C492        C  0.32566343  0.32798654  0.64794823     0.21800
C493        C  0.63730302  0.28376346  0.59536565    -0.53100
C494        C  0.63707091  0.28505547  0.63173929     0.10900
C495        C  0.63902666  0.01544791  0.59424740    -0.52600
C496        C  0.63869345  0.01622224  0.63065688     0.11500
H497        H  0.39756172  0.02691000  0.58042449     0.16000
H498        H  0.32538370  0.32875661  0.67762528     0.01700
H499        H  0.62320250  0.25501548  0.58107229     0.16300
H500        H  0.62595645  0.02962326  0.57821652     0.16100
C501        C  0.60686791  0.22195002  0.82797464    -0.11900
C502        C  0.62072250  0.25103059  0.84792131    -0.13400
C503        C  0.43442341  0.05084580  0.82707023    -0.11900
C504        C  0.40546916  0.03671185  0.84686741    -0.13400
C505        C  0.60536620  0.04987419  0.82642072    -0.11900
C506        C  0.61962874  0.03573064  0.84640736    -0.13400
C507        C  0.61896210  0.24911995  0.65335949    -0.11900
C508        C  0.60495367  0.22066035  0.67330023    -0.13400
C509        C  0.40493253  0.03330464  0.65334694    -0.11900
C510        C  0.43391770  0.04815951  0.67312229    -0.13400
C511        C  0.62111555  0.03576875  0.65152644    -0.11900
C512        C  0.60715909  0.05079608  0.67155081    -0.13400
C513        C  0.64868092  0.29792912  0.47785731    -0.11900
C514        C  0.33749716  0.00299717  0.46199323     0.10200
C515        C  0.35571493  0.03751496  0.48457154    -0.11900
C516        C  0.35144921  0.03357468  0.52160831    -0.11900
C517        C  0.32919428  0.32851559  0.53747288     0.10200
C518        C  0.64428795  0.29400072  0.51487893    -0.11900
H519        H  0.63428973  0.27067395  0.46134652     0.14200
H520        H  0.37355046  0.06779568  0.47436050     0.14200
H521        H  0.36593681  0.06081569  0.53813038     0.14200
H522        H  0.62646053  0.26370861  0.52505064     0.14200
C523        C  0.35216571  0.31281115  0.01528705    -0.11900
C524        C  0.67067464  0.33237493  0.03784081     0.10200
C525        C  0.65180744  0.01863400  0.02193065    -0.11900
C526        C  0.64773011  0.01874654  0.98488615    -0.11900
C527        C  0.66254517  0.33250096  0.96233687     0.10200
C528        C  0.34820145  0.31302694  0.97824103    -0.11900
H529        H  0.36678130  0.29706802  0.02551150     0.14200
H530        H  0.64000588  0.03397821  0.03843393     0.14200
H531        H  0.63322811  0.03459784  0.97465465     0.14200
H532        H  0.36016829  0.29783485  0.96174037     0.14200
C533        C  0.38063494  0.29740513  0.34817781    -0.11900
C534        C  0.39497682  0.28268408  0.32828415    -0.13400
C535        C  0.56581568  0.28129364  0.32658591    -0.11900
C536        C  0.59490069  0.29645782  0.34624342    -0.13400
C537        C  0.37930368  0.08209831  0.34595166    -0.11900
C538        C  0.39305298  0.11050539  0.32598828    -0.13400
C539        C  0.37873049  0.29444157  0.15384762    -0.11900
C540        C  0.39252393  0.27987346  0.17385336    -0.13400
C541        C  0.59501559  0.29709982  0.15365262    -0.11900
C542        C  0.56597431  0.28320775  0.17335333    -0.13400
C543        C  0.39527519  0.11019373  0.17158155    -0.11900
C544        C  0.38121551  0.08109579  0.15169006    -0.13400
Fe545      Fe  0.48104733  0.61794186  0.25048216     1.65800
Fe546      Fe  0.48122177  0.52808181  0.24936175     1.73200
Fe547      Fe  0.39062547  0.52750536  0.24998234     1.54400
O548        O  0.38635863  0.56595413  0.28727694    -0.80300
O549        O  0.44808164  0.49129310  0.20705871    -0.78600
O550        O  0.44784674  0.62148761  0.29274756    -0.82800
O551        O  0.44234778  0.62202793  0.21437869    -0.77600
O552        O  0.38717818  0.49080703  0.29140847    -0.79400
O553        O  0.52428871  0.56679413  0.21328273    -0.82200
C554        C  0.40825916  0.59763707  0.20010862     0.98600
C555        C  0.41071563  0.60007370  0.30164647     1.06000
O556        O  0.45095003  0.55783969  0.24993779    -1.11100
O557        O  0.51791370  0.56135774  0.29158715    -0.73600
O558        O  0.52414870  0.62254235  0.28660258    -0.77100
O559        O  0.38691174  0.56062292  0.20858234    -0.77700
C560        C  0.53387218  0.59846071  0.30049427     0.97500
O561        O  0.51786827  0.62161293  0.20830055    -0.75700
O562        O  0.44265121  0.48507695  0.28541803    -0.80900
C563        C  0.41089400  0.47528665  0.19823122     1.00100
C564        C  0.40861284  0.47522750  0.29977319     1.06100
O565        O  0.38642663  0.48477841  0.21268256    -0.76500
C566        C  0.53397408  0.60062439  0.19942169     1.04400
C567        C  0.33994726  0.66600696  0.07853659     0.87900
C568        C  0.63062123  0.64577753  0.09582298    -0.52400
C569        C  0.63140457  0.64742698  0.13213640     0.10800
C570        C  0.34099766  0.66872910  0.14829829     0.21800
C571        C  0.36263364  0.37608597  0.09457338    -0.53100
C572        C  0.36289030  0.37723951  0.13095251     0.10900
C573        C  0.36105199  0.64458366  0.09578379    -0.52600
C574        C  0.36131918  0.64618337  0.13215942     0.11500
H575        H  0.60235010  0.63156959  0.08061913     0.16000
H576        H  0.34136192  0.33652137  0.17798024     0.01700
H577        H  0.37671802  0.40336419  0.07856116     0.16300
H578        H  0.37459730  0.62942476  0.08153470     0.16100
C579        C  0.33997845  0.33846581  0.42128241     0.87900
C580        C  0.36165907  0.38100174  0.40401354    -0.52400
C581        C  0.36185086  0.37959913  0.36763683     0.10800
C582        C  0.34087733  0.33663948  0.35152492     0.21800
C583        C  0.63060817  0.65003327  0.40397799    -0.53100
C584        C  0.63132065  0.64896833  0.36770148     0.10900
C585        C  0.36187333  0.65033015  0.40533507    -0.52600
C586        C  0.36219740  0.64948947  0.36894090     0.11500
H587        H  0.37512275  0.40976285  0.41826403     0.16000
H588        H  0.34115009  0.33578983  0.32184802     0.01700
H589        H  0.60234024  0.63645387  0.41911979     0.16300
H590        H  0.37562190  0.63684975  0.42140990     0.16100
Fe591      Fe  0.51883449  0.38025536  0.74939502     1.65800
Fe592      Fe  0.51864892  0.47024350  0.75032398     1.73200
Fe593      Fe  0.60943133  0.47078734  0.74992921     1.54400
O594        O  0.61378270  0.43333071  0.78696758    -0.80300
O595        O  0.55254787  0.50765420  0.70923792    -0.78600
O596        O  0.55294372  0.37679629  0.79032533    -0.82800
O597        O  0.55669977  0.37603819  0.71164600    -0.77600
O598        O  0.61313459  0.50869024  0.79158833    -0.79400
O599        O  0.47632683  0.43218690  0.71295729    -0.82200
C600        C  0.59136778  0.39998969  0.69830777     0.98200
C601        C  0.58973360  0.39882719  0.80008741     1.06000
O602        O  0.54897115  0.44042349  0.74987916    -1.11100
O603        O  0.48093082  0.43645134  0.79139357    -0.73600
O604        O  0.47674197  0.37596897  0.78703475    -0.77100
O605        O  0.61334185  0.43671471  0.70828986    -0.77700
C606        C  0.46612064  0.39986432  0.80072084     0.97500
O607        O  0.48082739  0.37610047  0.70849130    -0.75700
O608        O  0.55654604  0.51266379  0.78782262    -0.80900
C609        C  0.58938416  0.52267821  0.69959767     1.00100
C610        C  0.59116009  0.52347556  0.80131396     1.06100
O611        O  0.61358661  0.51250664  0.71286428    -0.76500
C612        C  0.46576317  0.39766707  0.69930705     1.04400
C613        C  0.66007762  0.66564922  0.92161633     0.87900
C614        C  0.63844605  0.62232171  0.90530178    -0.52400
C615        C  0.63841275  0.62143774  0.86890365     0.10800
C616        C  0.65946196  0.66346308  0.85184074     0.21800
C617        C  0.36951103  0.35364307  0.90454952    -0.53100
C618        C  0.36897133  0.35229117  0.86823525     0.10900
C619        C  0.63806059  0.35285907  0.90442418    -0.52600
C620        C  0.63800321  0.35152854  0.86804223     0.11500
H621        H  0.62480983  0.59491942  0.92114645     0.16000
H622        H  0.65929643  0.66257173  0.82216013     0.01700
H623        H  0.39768099  0.36830448  0.91989601     0.16300
H624        H  0.62362222  0.36710716  0.91872719     0.16100
C625        C  0.32662812  0.65969077  0.57819959     0.87900
C626        C  0.36928446  0.34713805  0.59553367    -0.52400
C627        C  0.36853906  0.34808228  0.63182268     0.10800
C628        C  0.32567317  0.66132748  0.64796612     0.21800
C629        C  0.63730771  0.61711437  0.59537769    -0.53100
C630        C  0.63707400  0.61839988  0.63175043     0.10900
C631        C  0.63901617  0.34876834  0.59423278    -0.52600
C632        C  0.63868379  0.34954497  0.63064205     0.11500
H633        H  0.39755026  0.36022586  0.58040872     0.16000
H634        H  0.32539379  0.66209196  0.67764331     0.01700
H635        H  0.62319926  0.58836766  0.58108227     0.16300
H636        H  0.62594518  0.36294243  0.57820110     0.16100
C637        C  0.60683826  0.55529099  0.82795372    -0.11900
C638        C  0.62069541  0.58436860  0.84790462    -0.13400
C639        C  0.43444380  0.38416629  0.82709046    -0.11900
C640        C  0.40549367  0.37004236  0.84689172    -0.13400
C641        C  0.60542211  0.38324695  0.82641630    -0.11900
C642        C  0.61967765  0.36909549  0.84640347    -0.13400
C643        C  0.61895245  0.58245827  0.65336063    -0.11900
C644        C  0.60493745  0.55398810  0.67328847    -0.13400
C645        C  0.40492491  0.36662182  0.65333375    -0.11900
C646        C  0.43390703  0.38146974  0.67311356    -0.13400
C647        C  0.62110352  0.36909103  0.65150977    -0.11900
C648        C  0.60714540  0.38411735  0.67153384    -0.13400
C649        C  0.64870084  0.63128419  0.47787564    -0.11900
C650        C  0.33746980  0.33630775  0.46197446     0.10200
C651        C  0.35571813  0.37082383  0.48455279    -0.11900
C652        C  0.35145493  0.36688639  0.52159023    -0.11900
C653        C  0.32920543  0.66187147  0.53749054     0.10200
C654        C  0.64431386  0.62735592  0.51489688    -0.11900
H655        H  0.63431948  0.60402777  0.46136596     0.14200
H656        H  0.37358018  0.40110090  0.47434048     0.14200
H657        H  0.36596733  0.39412720  0.53811121     0.14200
H658        H  0.62650288  0.59706157  0.52506749     0.14200
C659        C  0.35216867  0.64613757  0.01528396    -0.11900
C660        C  0.67068315  0.66570806  0.03783677     0.10200
C661        C  0.65181861  0.35198396  0.02193848    -0.11900
C662        C  0.64773795  0.35208936  0.98489351    -0.11900
C663        C  0.66255197  0.66583097  0.96233235     0.10200
C664        C  0.34820336  0.64635172  0.97823677    -0.11900
H665        H  0.36677774  0.63038881  0.02551051     0.14200
H666        H  0.64002322  0.36733580  0.03843909     0.14200
H667        H  0.63324107  0.36794423  0.97465821     0.14200
H668        H  0.36016355  0.63115355  0.96173609     0.14200
C669        C  0.38062640  0.63075056  0.34819379    -0.11900
C670        C  0.39496593  0.61602468  0.32830205    -0.13400
C671        C  0.56580355  0.61461347  0.32660457    -0.11900
C672        C  0.59488668  0.62977880  0.34626411    -0.13400
C673        C  0.37930053  0.41541332  0.34592433    -0.11900
C674        C  0.39304501  0.44382122  0.32595939    -0.13400
C675        C  0.37874883  0.62780420  0.15385243    -0.11900
C676        C  0.39254815  0.61324676  0.17386320    -0.13400
C677        C  0.59502262  0.63046236  0.15365413    -0.11900
C678        C  0.56598851  0.61658492  0.17336352    -0.13400
C679        C  0.39527568  0.44355602  0.17157108    -0.11900
C680        C  0.38122012  0.41444553  0.15169380    -0.13400
Fe681      Fe  0.48107913  0.95127686  0.25047726     1.65800
Fe682      Fe  0.48122494  0.86139728  0.24938388     1.73200
Fe683      Fe  0.39063860  0.86085030  0.24997266     1.54400
O684        O  0.38637840  0.89928679  0.28728281    -0.80300
O685        O  0.44806672  0.82457949  0.20710065    -0.78600
O686        O  0.44785277  0.95484756  0.29270956    -0.82800
O687        O  0.44241910  0.95536918  0.21433314    -0.77600
O688        O  0.38716291  0.82412246  0.29138370    -0.79400
O689        O  0.52428129  0.90007059  0.21328359    -0.82200
C690        C  0.40831325  0.93099166  0.20008388     0.98600
C691        C  0.41073009  0.93342172  0.30162971     1.06000
O692        O  0.45096615  0.89117160  0.24994071    -1.11100
O693        O  0.51794036  0.89469578  0.29159187    -0.73600
O694        O  0.52414357  0.95586990  0.28663580    -0.77100
O695        O  0.38693745  0.89399028  0.20858667    -0.77700
C696        C  0.53388092  0.93179277  0.30051482     0.97500
O697        O  0.51793191  0.95493331  0.20832855    -0.75700
O698        O  0.44266199  0.81842719  0.28546062    -0.80900
C699        C  0.41089458  0.80861584  0.19823478     1.00100
C700        C  0.40860517  0.80856251  0.29978265     1.06100
O701        O  0.38643768  0.81814149  0.21265395    -0.76500
C702        C  0.53400052  0.93391501  0.19943594     1.04400
C703        C  0.33994460  0.99932764  0.07852810     0.87900
C704        C  0.63062220  0.97907204  0.09582170    -0.52400
C705        C  0.63141425  0.98071524  0.13213511     0.10800
C706        C  0.34101065  0.00203760  0.14828978     0.21800
C707        C  0.36263783  0.70942473  0.09456511    -0.53100
C708        C  0.36289410  0.71058341  0.13094390     0.10900
C709        C  0.36107790  0.97792519  0.09576300    -0.52600
C710        C  0.36135239  0.97951838  0.13213847     0.11500
H711        H  0.60234738  0.96485265  0.08062297     0.16000
H712        H  0.34136804  0.66987401  0.17797614     0.01700
H713        H  0.37672286  0.73670080  0.07855014     0.16300
H714        H  0.37463757  0.96278448  0.08150688     0.16100
C715        C  0.33997174  0.67181585  0.42129832     0.87900
C716        C  0.36163959  0.71434872  0.40402563    -0.52400
C717        C  0.36182836  0.71294098  0.36764916     0.10800
C718        C  0.34086243  0.66997977  0.35154057     0.21800
C719        C  0.63063321  0.98337188  0.40398538    -0.53100
C720        C  0.63134172  0.98231050  0.36770912     0.10900
C721        C  0.36189859  0.98366879  0.40533280    -0.52600
C722        C  0.36221893  0.98283234  0.36893828     0.11500
H723        H  0.37510026  0.74311105  0.41827387     0.16000
H724        H  0.34113223  0.66912680  0.32186363     0.01700
H725        H  0.60236682  0.96978893  0.41912962     0.16300
H726        H  0.37564850  0.97018648  0.42140326     0.16100
Fe727      Fe  0.51883794  0.71360197  0.74941244     1.65800
Fe728      Fe  0.51865277  0.80358553  0.75032793     1.73200
Fe729      Fe  0.60943069  0.80412751  0.74993520     1.54400
O730        O  0.61378727  0.76664597  0.78694393    -0.80300
O731        O  0.55253200  0.84096501  0.70921820    -0.78600
O732        O  0.55292035  0.71015651  0.79037097    -0.82800
O733        O  0.55673010  0.70937757  0.71169539    -0.77600
O734        O  0.61312655  0.84199600  0.79161911    -0.79400
O735        O  0.47630946  0.76550380  0.71298569    -0.82200
C736        C  0.59137663  0.73333960  0.69832509     0.98200
C737        C  0.58972535  0.73216597  0.80009828     1.06000
O738        O  0.54897293  0.77376647  0.74988852    -1.11100
O739        O  0.48095703  0.76982057  0.79141866    -0.73600
O740        O  0.47671886  0.70931880  0.78702062    -0.77100
O741        O  0.61332874  0.77008052  0.70827006    -0.77700
C742        C  0.46611882  0.73322283  0.80072332     0.97500
O743        O  0.48086189  0.70944785  0.70848339    -0.75700
O744        O  0.55657218  0.84602614  0.78780384    -0.80900
C745        C  0.58938047  0.85601857  0.69960541     1.00100
C746        C  0.59116787  0.85680750  0.80132092     1.06100
O747        O  0.61359190  0.84587503  0.71289922    -0.76500
C748        C  0.46577184  0.73099753  0.69931780     1.04400
C749        C  0.66007138  0.99898591  0.92161118     0.87900
C750        C  0.63844844  0.95565591  0.90530342    -0.52400
C751        C  0.63841251  0.95476536  0.86890627     0.10800
C752        C  0.65944879  0.99678585  0.85183645     0.21800
C753        C  0.36950662  0.68696669  0.90454044    -0.53100
C754        C  0.36896128  0.68562107  0.86822652     0.10900
C755        C  0.63806314  0.68619637  0.90442765    -0.52600
C756        C  0.63799933  0.68486907  0.86804604     0.11500
H757        H  0.62481876  0.92825666  0.92115194     0.16000
H758        H  0.65927847  0.99588736  0.82215586     0.01700
H759        H  0.39767905  0.70162488  0.91988373     0.16300
H760        H  0.62362856  0.70044547  0.91873462     0.16100
C761        C  0.32663048  0.99301908  0.57819611     0.87900
C762        C  0.36929364  0.68048327  0.59555013    -0.52400
C763        C  0.36854814  0.68141975  0.63183895     0.10800
C764        C  0.32567100  0.99466161  0.64796158     0.21800
C765        C  0.63731292  0.95044362  0.59537598    -0.53100
C766        C  0.63707718  0.95173250  0.63174883     0.10900
C767        C  0.63903104  0.68212353  0.59425627    -0.52600
C768        C  0.63869930  0.68289458  0.63066592     0.11500
H769        H  0.39755917  0.69357104  0.58042471     0.16000
H770        H  0.32538959  0.99542893  0.67763865     0.01700
H771        H  0.62320521  0.92169628  0.58108194     0.16300
H772        H  0.62596150  0.69630176  0.57822848     0.16100
C773        C  0.60684378  0.88861760  0.82796318    -0.11900
C774        C  0.62069920  0.91769391  0.84791385    -0.13400
C775        C  0.43443503  0.71752096  0.82708514    -0.11900
C776        C  0.40548127  0.70338395  0.84688144    -0.13400
C777        C  0.60541407  0.71658787  0.82642779    -0.11900
C778        C  0.61967056  0.70243749  0.84641439    -0.13400
C779        C  0.61895402  0.91579377  0.65336286    -0.11900
C780        C  0.60493629  0.88732733  0.67329499    -0.13400
C781        C  0.40493414  0.69995048  0.65334747    -0.11900
C782        C  0.43391706  0.71479651  0.67312506    -0.13400
C783        C  0.62111942  0.70243819  0.65153758    -0.11900
C784        C  0.60715717  0.71746328  0.67155821    -0.13400
C785        C  0.64873954  0.96461597  0.47787457    -0.11900
C786        C  0.33747122  0.66966287  0.46199118     0.10200
C787        C  0.35571152  0.70418074  0.48456876    -0.11900
C788        C  0.35145425  0.70024335  0.52160735    -0.11900
C789        C  0.32921351  0.99520027  0.53748862     0.10200
C790        C  0.64434436  0.96068451  0.51489465    -0.11900
H791        H  0.63437384  0.93736023  0.46136323     0.14200
H792        H  0.37356112  0.73445833  0.47435467     0.14200
H793        H  0.36595934  0.72748456  0.53812830     0.14200
H794        H  0.62654704  0.93038859  0.52506415     0.14200
C795        C  0.35216738  0.97947408  0.01527162    -0.11900
C796        C  0.67067076  0.99903050  0.03782900     0.10200
C797        C  0.65183823  0.68532617  0.02193315    -0.11900
C798        C  0.64775835  0.68543150  0.98488907    -0.11900
C799        C  0.66254463  0.99916752  0.96232606     0.10200
C800        C  0.34820573  0.97969633  0.97822592    -0.11900
H801        H  0.36678381  0.96373035  0.02549254     0.14200
H802        H  0.64005046  0.70068594  0.03843244     0.14200
H803        H  0.63327121  0.70129597  0.97465544     0.14200
H804        H  0.36017601  0.96450956  0.96172240     0.14200
C805        C  0.38064593  0.96409649  0.34818436    -0.11900
C806        C  0.39498355  0.94937353  0.32828725    -0.13400
C807        C  0.56581411  0.94794651  0.32662410    -0.11900
C808        C  0.59490369  0.96311632  0.34627667    -0.13400
C809        C  0.37927683  0.74875202  0.34593456    -0.11900
C810        C  0.39302519  0.77715901  0.32596963    -0.13400
C811        C  0.37880347  0.96115304  0.15382203    -0.11900
C812        C  0.39261082  0.94660283  0.17383206    -0.13400
C813        C  0.59503855  0.96373402  0.15365988    -0.11900
C814        C  0.56601058  0.94985732  0.17337517    -0.13400
C815        C  0.39528043  0.77689592  0.17156525    -0.11900
C816        C  0.38122587  0.74779062  0.15168249    -0.13400
Fe817      Fe  0.81437359  0.28458241  0.25045819     1.65800
Fe818      Fe  0.81455455  0.19472715  0.24937401     1.73200
Fe819      Fe  0.72395615  0.19414969  0.24998048     1.54400
O820        O  0.71969358  0.23261094  0.28726147    -0.80300
O821        O  0.78141112  0.15791839  0.20708155    -0.78600
O822        O  0.78118646  0.28813959  0.29272823    -0.82800
O823        O  0.77566243  0.28865881  0.21436278    -0.77600
O824        O  0.72051682  0.15747308  0.29141979    -0.79400
O825        O  0.85761815  0.23342863  0.21328634    -0.82200
C826        C  0.74157410  0.26426472  0.20009501     0.98600
C827        C  0.74405512  0.26673037  0.30162833     1.06000
O828        O  0.78427950  0.22448221  0.24993253    -1.11100
O829        O  0.85124725  0.22801908  0.29159291    -0.73600
O830        O  0.85749136  0.28920291  0.28657083    -0.77100
O831        O  0.72023338  0.22725006  0.20856911    -0.77700
C832        C  0.86721281  0.26512803  0.30047969     0.97500
O833        O  0.85117249  0.28822992  0.20826825    -0.75700
O834        O  0.77598972  0.15174052  0.28544143    -0.80900
C835        C  0.74422507  0.14191605  0.19824897     1.00100
C836        C  0.74195333  0.14189967  0.29979506     1.06100
O837        O  0.71975831  0.15141245  0.21269416    -0.76500
C838        C  0.86728980  0.26724710  0.19940693     1.04400
C839        C  0.67327598  0.33267078  0.07854022     0.87900
C840        C  0.96395088  0.31243872  0.09582611    -0.52400
C841        C  0.96473349  0.31408116  0.13213900     0.10800
C842        C  0.67432612  0.33538166  0.14830233     0.21800
C843        C  0.69594882  0.04274394  0.09456247    -0.53100
C844        C  0.69621483  0.04389518  0.13094199     0.10900
C845        C  0.69438002  0.31124362  0.09578308    -0.52600
C846        C  0.69464628  0.31283656  0.13215892     0.11500
H847        H  0.93567982  0.29822986  0.08062214     0.16000
H848        H  0.67472038  0.00317690  0.17796780     0.01700
H849        H  0.71001880  0.07002309  0.07855141     0.16300
H850        H  0.70792115  0.29608212  0.08153152     0.16100
C851        C  0.67333138  0.00515289  0.42130229     0.87900
C852        C  0.69499872  0.04768721  0.40403472    -0.52400
C853        C  0.69518407  0.04628377  0.36765927     0.10800
C854        C  0.67421573  0.00332492  0.35154512     0.21800
C855        C  0.96395077  0.31669611  0.40395845    -0.53100
C856        C  0.96466689  0.31563582  0.36768236     0.10900
C857        C  0.69520530  0.31697229  0.40531953    -0.52600
C858        C  0.69553526  0.31613867  0.36892540     0.11500
H859        H  0.70846600  0.07644884  0.41828460     0.16000
H860        H  0.67448332  0.00247651  0.32186808     0.01700
H861        H  0.93568109  0.30312225  0.41909784     0.16300
H862        H  0.70894722  0.30348504  0.42139417     0.16100
Fe863      Fe  0.85216156  0.04693368  0.74939006     1.65800
Fe864      Fe  0.85199897  0.13692760  0.75033877     1.73200
Fe865      Fe  0.94276422  0.13744757  0.74994413     1.54400
O866        O  0.94709758  0.09994208  0.78694093    -0.80300
O867        O  0.88587706  0.17429913  0.70922212    -0.78600
O868        O  0.88621716  0.04346604  0.79036080    -0.82800
O869        O  0.89006489  0.04270824  0.71168684    -0.77600
O870        O  0.94646247  0.17530451  0.79164205    -0.79400
O871        O  0.80963462  0.09884508  0.71300686    -0.82200
C872        C  0.92471271  0.06667070  0.69832020     0.98200
C873        C  0.92302299  0.06546320  0.80009137     1.06000
O874        O  0.88230788  0.10709801  0.74988739    -1.11100
O875        O  0.81431552  0.10316644  0.79143867    -0.73600
O876        O  0.81002172  0.04264306  0.78698103    -0.77100
O877        O  0.94666394  0.10341049  0.70826913    -0.77700
C878        C  0.79944622  0.06655410  0.80071169     0.97500
O879        O  0.81421887  0.04281072  0.70844536    -0.75700
O880        O  0.88993238  0.17937359  0.78780622    -0.80900
C881        C  0.92272883  0.18935500  0.69961597     1.00100
C882        C  0.92451867  0.19013649  0.80133394     1.06100
O883        O  0.94693903  0.17921327  0.71291786    -0.76500
C884        C  0.79911107  0.06435409  0.69931057     1.04400
C885        C  0.99341192  0.33232051  0.92162092     0.87900
C886        C  0.97179003  0.28899179  0.90531084    -0.52400
C887        C  0.97176314  0.28810307  0.86891369     0.10800
C888        C  0.99280743  0.33012573  0.85184575     0.21800
C889        C  0.70283288  0.02031062  0.90453150    -0.53100
C890        C  0.70228410  0.01895635  0.86821713     0.10900
C891        C  0.97137870  0.01951937  0.90442131    -0.52600
C892        C  0.97130933  0.01818293  0.86804001     0.11500
H893        H  0.95815597  0.26159140  0.92115819     0.16000
H894        H  0.99264589  0.32922956  0.82216518     0.01700
H895        H  0.73100672  0.03497548  0.91987260     0.16300
H896        H  0.95693965  0.03376468  0.91872765     0.16100
C897        C  0.65995130  0.32633774  0.57818218     0.87900
C898        C  0.70262830  0.01381825  0.59554863    -0.52400
C899        C  0.70188058  0.01475889  0.63183705     0.10800
C900        C  0.65899672  0.32798654  0.64794823     0.21800
C901        C  0.97063642  0.28376347  0.59536566    -0.53100
C902        C  0.97040434  0.28505547  0.63173930     0.10900
C903        C  0.97236000  0.01544794  0.59424740    -0.52600
C904        C  0.97202676  0.01622226  0.63065687     0.11500
H905        H  0.73089505  0.02691005  0.58042449     0.16000
H906        H  0.65871698  0.32875661  0.67762528     0.01700
H907        H  0.95653586  0.25501547  0.58107228     0.16300
H908        H  0.95928983  0.02962330  0.57821651     0.16100
C909        C  0.94020120  0.22195003  0.82797465    -0.11900
C910        C  0.95405575  0.25103060  0.84792132    -0.13400
C911        C  0.76775675  0.05084582  0.82707023    -0.11900
C912        C  0.73880250  0.03671188  0.84686740    -0.13400
C913        C  0.93869953  0.04987419  0.82642067    -0.11900
C914        C  0.95296203  0.03573063  0.84640736    -0.13400
C915        C  0.95229554  0.24911996  0.65335949    -0.11900
C916        C  0.93828708  0.22066035  0.67330022    -0.13400
C917        C  0.73826588  0.03330463  0.65334691    -0.11900
C918        C  0.76725105  0.04815953  0.67312226    -0.13400
C919        C  0.95444884  0.03576875  0.65152645    -0.11900
C920        C  0.94049238  0.05079608  0.67155083    -0.13400
C921        C  0.98201416  0.29792912  0.47785732    -0.11900
C922        C  0.67083060  0.00299716  0.46199323     0.10200
C923        C  0.68904833  0.03751496  0.48457154    -0.11900
C924        C  0.68478250  0.03357468  0.52160830    -0.11900
C925        C  0.66252766  0.32851558  0.53747288     0.10200
C926        C  0.97762119  0.29400076  0.51487892    -0.11900
H927        H  0.96762299  0.27067397  0.46134652     0.14200
H928        H  0.70688388  0.06779568  0.47436050     0.14200
H929        H  0.69926996  0.06081571  0.53813037     0.14200
H930        H  0.95979372  0.26370852  0.52505067     0.14200
C931        C  0.68549897  0.31281111  0.01528703    -0.11900
C932        C  0.00400798  0.33237493  0.03784081     0.10200
C933        C  0.98514075  0.01863396  0.02193064    -0.11900
C934        C  0.98106350  0.01874655  0.98488614    -0.11900
C935        C  0.99587855  0.33250097  0.96233686     0.10200
C936        C  0.68153469  0.31302690  0.97824101    -0.11900
H937        H  0.70011454  0.29706793  0.02551145     0.14200
H938        H  0.97333911  0.03397812  0.03843392     0.14200
H939        H  0.96656152  0.03459787  0.97465463     0.14200
H940        H  0.69350149  0.29783488  0.96174036     0.14200
C941        C  0.71396817  0.29740511  0.34817778    -0.11900
C942        C  0.72831007  0.28268409  0.32828410    -0.13400
C943        C  0.89914890  0.28129362  0.32658595    -0.11900
C944        C  0.92823394  0.29645784  0.34624344    -0.13400
C945        C  0.71263688  0.08209824  0.34595166    -0.11900
C946        C  0.72638621  0.11050535  0.32598829    -0.13400
C947        C  0.71206387  0.29444157  0.15384761    -0.11900
C948        C  0.72585728  0.27987345  0.17385341    -0.13400
C949        C  0.92834899  0.29709981  0.15365261    -0.11900
C950        C  0.89930774  0.28320773  0.17335334    -0.13400
C951        C  0.72860853  0.11019373  0.17158155    -0.11900
C952        C  0.71454876  0.08109579  0.15169005    -0.13400
Fe953      Fe  0.81438069  0.61794189  0.25048215     1.65800
Fe954      Fe  0.81455503  0.52808178  0.24936175     1.73200
Fe955      Fe  0.72395883  0.52750537  0.24998234     1.54400
O956        O  0.71969204  0.56595412  0.28727696    -0.80300
O957        O  0.78141490  0.49129309  0.20705869    -0.78600
O958        O  0.78118011  0.62148766  0.29274754    -0.82800
O959        O  0.77568109  0.62202797  0.21437873    -0.77600
O960        O  0.72051145  0.49080702  0.29140848    -0.79400
O961        O  0.85762189  0.56679403  0.21328266    -0.82200
C962        C  0.74159249  0.59763708  0.20010863     0.98600
C963        C  0.74404901  0.60007370  0.30164648     1.06000
O964        O  0.78428338  0.55783970  0.24993780    -1.11100
O965        O  0.85124695  0.56135771  0.29158717    -0.73600
O966        O  0.85748210  0.62254239  0.28660253    -0.77100
O967        O  0.72024513  0.56062291  0.20858231    -0.77700
C968        C  0.86720550  0.59846071  0.30049426     0.97500
O969        O  0.85120158  0.62161292  0.20830054    -0.75700
O970        O  0.77598446  0.48507695  0.28541803    -0.80900
C971        C  0.74422726  0.47528664  0.19823121     1.00100
C972        C  0.74194609  0.47522749  0.29977320     1.06100
O973        O  0.71975991  0.48477840  0.21268258    -0.76500
C974        C  0.86730728  0.60062431  0.19942161     1.04400
C975        C  0.67328062  0.66600697  0.07853659     0.87900
C976        C  0.96395456  0.64577755  0.09582300    -0.52400
C977        C  0.96473786  0.64742700  0.13213639     0.10800
C978        C  0.67433096  0.66872911  0.14829829     0.21800
C979        C  0.69596690  0.37608595  0.09457341    -0.53100
C980        C  0.69622353  0.37723947  0.13095253     0.10900
C981        C  0.69438535  0.64458371  0.09578383    -0.52600
C982        C  0.69465250  0.64618339  0.13215943     0.11500
H983        H  0.93568335  0.63156959  0.08061910     0.16000
H984        H  0.67469519  0.33652125  0.17798024     0.01700
H985        H  0.71005118  0.40336418  0.07856121     0.16300
H986        H  0.70793071  0.62942476  0.08153470     0.16100
C987        C  0.67331179  0.33846581  0.42128242     0.87900
C988        C  0.69499247  0.38100177  0.40401355    -0.52400
C989        C  0.69518425  0.37959914  0.36763684     0.10800
C990        C  0.67421067  0.33663951  0.35152492     0.21800
C991        C  0.96394152  0.65003326  0.40397800    -0.53100
C992        C  0.96465397  0.64896833  0.36770149     0.10900
C993        C  0.69520664  0.65033012  0.40533510    -0.52600
C994        C  0.69553072  0.64948947  0.36894090     0.11500
H995        H  0.70845620  0.40976283  0.41826400     0.16000
H996        H  0.67448340  0.33578985  0.32184803     0.01700
H997        H  0.93567362  0.63645385  0.41911982     0.16300
H998        H  0.70895511  0.63684973  0.42140990     0.16100
Fe999      Fe  0.85216787  0.38025537  0.74939503     1.65800
Fe1000     Fe  0.85198226  0.47024348  0.75032397     1.73200
Fe1001     Fe  0.94276472  0.47078736  0.74992922     1.54400
O1002       O  0.94711608  0.43333073  0.78696756    -0.80300
O1003       O  0.88588125  0.50765419  0.70923792    -0.78600
O1004       O  0.88627711  0.37679629  0.79032531    -0.82800
O1005       O  0.89003307  0.37603818  0.71164599    -0.77600
O1006       O  0.94646791  0.50869027  0.79158835    -0.79400
O1007       O  0.80966011  0.43218688  0.71295731    -0.82200
C1008       C  0.92470106  0.39998968  0.69830776     0.98200
C1009       C  0.92306699  0.39882722  0.80008739     1.06000
O1010       O  0.88230453  0.44042349  0.74987917    -1.11100
O1011       O  0.81426412  0.43645133  0.79139352    -0.73600
O1012       O  0.81007540  0.37596902  0.78703480    -0.77100
O1013       O  0.94667515  0.43671470  0.70828985    -0.77700
C1014       C  0.79945399  0.39986433  0.80072083     0.97500
O1015       O  0.81416079  0.37610053  0.70849131    -0.75700
O1016       O  0.88987933  0.51266376  0.78782261    -0.80900
C1017       C  0.92271756  0.52267821  0.69959767     1.00100
C1018       C  0.92449338  0.52347556  0.80131396     1.06100
O1019       O  0.94692000  0.51250665  0.71286428    -0.76500
C1020       C  0.79909650  0.39766706  0.69930707     1.04400
C1021       C  0.99341092  0.66564921  0.92161633     0.87900
C1022       C  0.97177944  0.62232171  0.90530177    -0.52400
C1023       C  0.97174614  0.62143774  0.86890365     0.10800
C1024       C  0.99279533  0.66346309  0.85184074     0.21800
C1025       C  0.70284440  0.35364306  0.90454956    -0.53100
C1026       C  0.70230474  0.35229116  0.86823528     0.10900
C1027       C  0.97139390  0.35285908  0.90442420    -0.52600
C1028       C  0.97133649  0.35152857  0.86804226     0.11500
H1029       H  0.95814320  0.59491938  0.92114648     0.16000
H1030       H  0.99262980  0.66257174  0.82216013     0.01700
H1031       H  0.73101435  0.36830446  0.91989608     0.16300
H1032       H  0.95695552  0.36710721  0.91872725     0.16100
C1033       C  0.65996152  0.65969076  0.57819959     0.87900
C1034       C  0.70261772  0.34713801  0.59553370    -0.52400
C1035       C  0.70187236  0.34808226  0.63182268     0.10800
C1036       C  0.65900657  0.66132748  0.64796612     0.21800
C1037       C  0.97064098  0.61711435  0.59537769    -0.53100
C1038       C  0.97040730  0.61839986  0.63175042     0.10900
C1039       C  0.97234953  0.34876834  0.59423279    -0.52600
C1040       C  0.97201711  0.34954494  0.63064206     0.11500
H1041       H  0.73088362  0.36022582  0.58040870     0.16000
H1042       H  0.65872722  0.66209197  0.67764331     0.01700
H1043       H  0.95653251  0.58836764  0.58108227     0.16300
H1044       H  0.95927858  0.36294245  0.57820111     0.16100
C1045       C  0.94017147  0.55529098  0.82795372    -0.11900
C1046       C  0.95402865  0.58436859  0.84790462    -0.13400
C1047       C  0.76777714  0.38416628  0.82709042    -0.11900
C1048       C  0.73882706  0.37004235  0.84689174    -0.13400
C1049       C  0.93875548  0.38324703  0.82641630    -0.11900
C1050       C  0.95301103  0.36909561  0.84640351    -0.13400
C1051       C  0.95228586  0.58245825  0.65336063    -0.11900
C1052       C  0.93827085  0.55398809  0.67328847    -0.13400
C1053       C  0.73825823  0.36662177  0.65333374    -0.11900
C1054       C  0.76724038  0.38146970  0.67311354    -0.13400
C1055       C  0.95443676  0.36909099  0.65150975    -0.11900
C1056       C  0.94047865  0.38411733  0.67153381    -0.13400
C1057       C  0.98203429  0.63128419  0.47787564    -0.11900
C1058       C  0.67080313  0.33630776  0.46197447     0.10200
C1059       C  0.68905150  0.37082381  0.48455280    -0.11900
C1060       C  0.68478836  0.36688638  0.52159024    -0.11900
C1061       C  0.66253875  0.66187147  0.53749054     0.10200
C1062       C  0.97764730  0.62735592  0.51489688    -0.11900
H1063       H  0.96765294  0.60402777  0.46136596     0.14200
H1064       H  0.70691356  0.40110093  0.47434046     0.14200
H1065       H  0.69930076  0.39412719  0.53811123     0.14200
H1066       H  0.95983634  0.59706156  0.52506749     0.14200
C1067       C  0.68550201  0.64613759  0.01528395    -0.11900
C1068       C  0.00401647  0.66570806  0.03783678     0.10200
C1069       C  0.98515192  0.35198390  0.02193848    -0.11900
C1070       C  0.98107131  0.35208938  0.98489349    -0.11900
C1071       C  0.99588527  0.66583095  0.96233235     0.10200
C1072       C  0.68153666  0.64635168  0.97823676    -0.11900
H1073       H  0.70011115  0.63038885  0.02551054     0.14200
H1074       H  0.97335644  0.36733569  0.03843908     0.14200
H1075       H  0.96657447  0.36794417  0.97465823     0.14200
H1076       H  0.69349680  0.63115350  0.96173610     0.14200
C1077       C  0.71395971  0.63075053  0.34819378    -0.11900
C1078       C  0.72829926  0.61602466  0.32830206    -0.13400
C1079       C  0.89913684  0.61461345  0.32660461    -0.11900
C1080       C  0.92821997  0.62977882  0.34626414    -0.13400
C1081       C  0.71263392  0.41541333  0.34592434    -0.11900
C1082       C  0.72637829  0.44382122  0.32595940    -0.13400
C1083       C  0.71208209  0.62780418  0.15385246    -0.11900
C1084       C  0.72588144  0.61324674  0.17386320    -0.13400
C1085       C  0.92835588  0.63046238  0.15365411    -0.11900
C1086       C  0.89932171  0.61658483  0.17336343    -0.13400
C1087       C  0.72860888  0.44355601  0.17157107    -0.11900
C1088       C  0.71455329  0.41444549  0.15169382    -0.13400
Fe1089     Fe  0.81441246  0.95127686  0.25047731     1.65800
Fe1090     Fe  0.81455832  0.86139727  0.24938389     1.73200
Fe1091     Fe  0.72397197  0.86085030  0.24997265     1.54400
O1092       O  0.71971175  0.89928681  0.28728279    -0.80300
O1093       O  0.78140014  0.82457948  0.20710066    -0.78600
O1094       O  0.78118616  0.95484753  0.29270967    -0.82800
O1095       O  0.77575240  0.95536921  0.21433322    -0.77600
O1096       O  0.72049632  0.82412250  0.29138367    -0.79400
O1097       O  0.85761460  0.90007059  0.21328356    -0.82200
C1098       C  0.74164661  0.93099166  0.20008387     0.98600
C1099       C  0.74406346  0.93342171  0.30162975     1.06000
O1100       O  0.78429949  0.89117159  0.24994072    -1.11100
O1101       O  0.85127378  0.89469578  0.29159186    -0.73600
O1102       O  0.85747695  0.95586988  0.28663578    -0.77100
O1103       O  0.72027084  0.89399026  0.20858663    -0.77700
C1104       C  0.86721433  0.93179277  0.30051479     0.97500
O1105       O  0.85126525  0.95493335  0.20832859    -0.75700
O1106       O  0.77599539  0.81842716  0.28546065    -0.80900
C1107       C  0.74422801  0.80861584  0.19823478     1.00100
C1108       C  0.74193855  0.80856252  0.29978265     1.06100
O1109       O  0.71977110  0.81814149  0.21265395    -0.76500
C1110       C  0.86733384  0.93391503  0.19943594     1.04400
C1111       C  0.67327785  0.99932763  0.07852810     0.87900
C1112       C  0.96395555  0.97907202  0.09582169    -0.52400
C1113       C  0.96474759  0.98071523  0.13213510     0.10800
C1114       C  0.67434391  0.00203760  0.14828979     0.21800
C1115       C  0.69597111  0.70942473  0.09456511    -0.53100
C1116       C  0.69622736  0.71058341  0.13094389     0.10900
C1117       C  0.69441114  0.97792517  0.09576301    -0.52600
C1118       C  0.69468565  0.97951838  0.13213848     0.11500
H1119       H  0.93568079  0.96485264  0.08062298     0.16000
H1120       H  0.67470131  0.66987403  0.17797613     0.01700
H1121       H  0.71005617  0.73670081  0.07855013     0.16300
H1122       H  0.70797082  0.96278447  0.08150689     0.16100
C1123       C  0.67330505  0.67181586  0.42129831     0.87900
C1124       C  0.69497294  0.71434873  0.40402564    -0.52400
C1125       C  0.69516172  0.71294099  0.36764916     0.10800
C1126       C  0.67419580  0.66997978  0.35154057     0.21800
C1127       C  0.96396655  0.98337190  0.40398538    -0.53100
C1128       C  0.96467504  0.98231048  0.36770913     0.10900
C1129       C  0.69523199  0.98366877  0.40533279    -0.52600
C1130       C  0.69555232  0.98283231  0.36893830     0.11500
H1131       H  0.70843358  0.74311105  0.41827387     0.16000
H1132       H  0.67446557  0.66912682  0.32186363     0.01700
H1133       H  0.93570014  0.96978901  0.41912963     0.16300
H1134       H  0.70898195  0.97018643  0.42140328     0.16100
Fe1135     Fe  0.85217127  0.71360196  0.74941242     1.65800
Fe1136     Fe  0.85198614  0.80358555  0.75032793     1.73200
Fe1137     Fe  0.94276401  0.80412750  0.74993520     1.54400
O1138       O  0.94712058  0.76664600  0.78694396    -0.80300
O1139       O  0.88586537  0.84096503  0.70921817    -0.78600
O1140       O  0.88625371  0.71015645  0.79037095    -0.82800
O1141       O  0.89006345  0.70937756  0.71169539    -0.77600
O1142       O  0.94645989  0.84199599  0.79161911    -0.79400
O1143       O  0.80964271  0.76550379  0.71298574    -0.82200
C1144       C  0.92470997  0.73333960  0.69832507     0.98200
C1145       C  0.92305872  0.73216596  0.80009828     1.06000
O1146       O  0.88230626  0.77376645  0.74988850    -1.11100
O1147       O  0.81429052  0.76982067  0.79141873    -0.73600
O1148       O  0.81005217  0.70931883  0.78702056    -0.77100
O1149       O  0.94666209  0.77008052  0.70827006    -0.77700
C1150       C  0.79945220  0.73322290  0.80072332     0.97500
O1151       O  0.81419527  0.70944790  0.70848333    -0.75700
O1152       O  0.88990557  0.84602617  0.78780383    -0.80900
C1153       C  0.92271383  0.85601858  0.69960539     1.00100
C1154       C  0.92450123  0.85680751  0.80132092     1.06100
O1155       O  0.94692524  0.84587501  0.71289922    -0.76500
C1156       C  0.79910515  0.73099755  0.69931779     1.04400
C1157       C  0.99340471  0.99898591  0.92161118     0.87900
C1158       C  0.97178179  0.95565591  0.90530343    -0.52400
C1159       C  0.97174577  0.95476536  0.86890627     0.10800
C1160       C  0.99278207  0.99678584  0.85183645     0.21800
C1161       C  0.70283997  0.68696670  0.90454045    -0.53100
C1162       C  0.70229461  0.68562106  0.86822651     0.10900
C1163       C  0.97139643  0.68619631  0.90442762    -0.52600
C1164       C  0.97133267  0.68486905  0.86804603     0.11500
H1165       H  0.95815224  0.92825665  0.92115193     0.16000
H1166       H  0.99261172  0.99588737  0.82215586     0.01700
H1167       H  0.73101231  0.70162486  0.91988368     0.16300
H1168       H  0.95696178  0.70044545  0.91873462     0.16100
C1169       C  0.65996381  0.99301908  0.57819612     0.87900
C1170       C  0.70262704  0.68048324  0.59555011    -0.52400
C1171       C  0.70188154  0.68141970  0.63183893     0.10800
C1172       C  0.65900434  0.99466161  0.64796159     0.21800
C1173       C  0.97064626  0.95044361  0.59537598    -0.53100
C1174       C  0.97041046  0.95173250  0.63174883     0.10900
C1175       C  0.97236439  0.68212356  0.59425628    -0.52600
C1176       C  0.97203265  0.68289459  0.63066592     0.11500
H1177       H  0.73089258  0.69357102  0.58042470     0.16000
H1178       H  0.65872293  0.99542892  0.67763866     0.01700
H1179       H  0.95653870  0.92169627  0.58108194     0.16300
H1180       H  0.95929492  0.69630184  0.57822849     0.16100
C1181       C  0.94017715  0.88861760  0.82796318    -0.11900
C1182       C  0.95403246  0.91769391  0.84791385    -0.13400
C1183       C  0.76776837  0.71752104  0.82708511    -0.11900
C1184       C  0.73881461  0.70338395  0.84688143    -0.13400
C1185       C  0.93874752  0.71658790  0.82642775    -0.11900
C1186       C  0.95300399  0.70243752  0.84641435    -0.13400
C1187       C  0.95228742  0.91579376  0.65336286    -0.11900
C1188       C  0.93826971  0.88732733  0.67329498    -0.13400
C1189       C  0.73826752  0.69995045  0.65334742    -0.11900
C1190       C  0.76725041  0.71479654  0.67312503    -0.13400
C1191       C  0.95445278  0.70243822  0.65153759    -0.11900
C1192       C  0.94049048  0.71746328  0.67155817    -0.13400
C1193       C  0.98207276  0.96461597  0.47787456    -0.11900
C1194       C  0.67080443  0.66966286  0.46199118     0.10200
C1195       C  0.68904478  0.70418074  0.48456875    -0.11900
C1196       C  0.68478761  0.70024335  0.52160736    -0.11900
C1197       C  0.66254687  0.99520028  0.53748862     0.10200
C1198       C  0.97767757  0.96068452  0.51489465    -0.11900
H1199       H  0.96770703  0.93736023  0.46136322     0.14200
H1200       H  0.70689440  0.73445831  0.47435467     0.14200
H1201       H  0.69929286  0.72748455  0.53812831     0.14200
H1202       H  0.95988024  0.93038859  0.52506415     0.14200
C1203       C  0.68550071  0.97947411  0.01527161    -0.11900
C1204       C  0.00400411  0.99903050  0.03782900     0.10200
C1205       C  0.98517155  0.68532614  0.02193314    -0.11900
C1206       C  0.98109168  0.68543153  0.98488908    -0.11900
C1207       C  0.99587802  0.99916753  0.96232606     0.10200
C1208       C  0.68153909  0.97969637  0.97822592    -0.11900
H1209       H  0.70011723  0.96373034  0.02549257     0.14200
H1210       H  0.97338372  0.70068594  0.03843249     0.14200
H1211       H  0.96660463  0.70129603  0.97465543     0.14200
H1212       H  0.69350939  0.96450966  0.96172237     0.14200
C1213       C  0.71397933  0.96409649  0.34818439    -0.11900
C1214       C  0.72831691  0.94937351  0.32828728    -0.13400
C1215       C  0.89914748  0.94794652  0.32662408    -0.11900
C1216       C  0.92823704  0.96311634  0.34627669    -0.13400
C1217       C  0.71261007  0.74875203  0.34593456    -0.11900
C1218       C  0.72635847  0.77715901  0.32596962    -0.13400
C1219       C  0.71213683  0.96115307  0.15382202    -0.11900
C1220       C  0.72594420  0.94660283  0.17383200    -0.13400
C1221       C  0.92837185  0.96373404  0.15365985    -0.11900
C1222       C  0.89934387  0.94985733  0.17337513    -0.13400
C1223       C  0.72861389  0.77689593  0.17156526    -0.11900
C1224       C  0.71455926  0.74779062  0.15168249    -0.13400
loop_ 
_geom_bond_atom_site_label_1 
_geom_bond_atom_site_label_2 
_geom_bond_distance 
_geom_bond_site_symmetry_2 
_ccdc_geom_bond_type 
Fe1          O17   2.062       .  S
Fe1           O7   2.066       .  S
Fe1          O14   2.065       .  S
Fe1           O6   2.062       .  S
Fe1          O12   1.979       .  S
Fe2           O5   2.060       .  S
Fe2           O9   2.068       .  S
Fe2          O13   2.059       .  S
Fe2          O18   2.068       .  S
Fe2          O12   1.978       .  S
Fe3          O21   2.075       .  S
Fe3           O8   2.063       .  S
Fe3          O15   2.063       .  S
Fe3           O4   2.074       .  S
Fe3          O12   1.977       .  S
O4           C11   1.269       .  A
O5           C19   1.267       .  A
O6           C11   1.267       .  A
O7           C10   1.267       .  A
O8           C20   1.267       .  A
O9           C22   1.268       .  A
C10          O15   1.267       .  A
C10         C132   1.434       .  S
C11         C126   1.437       .  S
O13          C16   1.266       .  A
O14          C16   1.267       .  A
C16         C127   1.431       .  S
O17          C22   1.267       .  A
O18          C20   1.267       .  A
C19          O21   1.269       .  A
C19         C135   1.436       .  S
C20         C130   1.435       .  S
C22         C134   1.434       .  S
C23          C29   1.550       .  S
C23         C840   1.542   1_455  S
C23         C163   1.544       .  S
C23         C932   1.528       .  S
C24         C431   1.542       .  S
C24          H31   1.087       .  S
C24          C25   1.361       .  D
C25         C434   1.531       .  S
C25         C133   1.440       .  S
C26          C30   1.531       .  S
C26         C841   1.531   1_455  S
C26         C164   1.532       .  S
C26         H168   1.112       .  S
C27         C295   1.544   1_545  S
C27          H33   1.087       .  S
C27          C28   1.363       .  D
C28         C298   1.532       .  S
C28         C136   1.442       .  S
C29          H34   1.081       .  S
C29          C30   1.363       .  D
C30         C131   1.441       .  S
H32         C298   1.112       .  S
C35          C36   1.550       .  S
C35         C313   1.543   1_545  S
C35        C1127   1.541   1_445  S
C35         C106   1.528       .  S
C36          H43   1.082       .  S
C36          C37   1.363       .  D
C37          C38   1.531       .  S
C37         C129   1.442       .  S
C38         C314   1.532   1_545  S
C38        C1128   1.531   1_445  S
C38          H44   1.112       .  S
C39         C579   1.541       .  S
C39          H45   1.087       .  S
C39          C40   1.360       .  D
C40         C582   1.531       .  S
C40         C128   1.438       .  S
C41         C171   1.543       .  S
C41          H46   1.087       .  S
C41          C42   1.364       .  D
C42         C174   1.532       .  S
C42         C125   1.443       .  S
Fe47         O63   2.059       .  S
Fe47         O53   2.071       .  S
Fe47         O60   2.069       .  S
Fe47         O52   2.060       .  S
Fe47         O58   1.981       .  S
Fe48         O51   2.061       .  S
Fe48         O55   2.065       .  S
Fe48         O59   2.061       .  S
Fe48         O64   2.067       .  S
Fe48         O58   1.982       .  S
Fe49         O67   2.071       .  S
Fe49         O54   2.068       .  S
Fe49         O61   2.067       .  S
Fe49         O50   2.071       .  S
Fe49         O58   1.981       .  S
O50          C57   1.268       .  A
O51          C65   1.267       .  A
O52          C57   1.266       .  A
O53          C56   1.268       .  A
O54          C66   1.268       .  A
O55          C68   1.267       .  A
C56          O61   1.268       .  A
C56         C104   1.439       .  S
C57          C97   1.435       .  S
O59          C62   1.267       .  A
O60          C62   1.268       .  A
C62          C95   1.434       .  S
O63          C68   1.266       .  A
O64          C66   1.267       .  A
C65          O67   1.268       .  A
C65         C100   1.436       .  S
C66          C93   1.437       .  S
C68         C102   1.432       .  S
C69          C70   1.545       .  S
C69         C211   1.550       .  S
C69         C617   1.541       .  S
C69         C119   1.529       .  S
C70          H77   1.087       .  S
C70          C71   1.364       .  D
C71          C72   1.532       .  S
C71          C94   1.444       .  S
C72         C212   1.531       .  S
C72         C618   1.531       .  S
C72          H78   1.112       .  S
C73        C1157   1.541   1_445  S
C73          H79   1.087       .  S
C73          C74   1.361       .  D
C74        C1160   1.531   1_445  S
C74          C96   1.440       .  S
C75         C341   1.550   1_545  S
C75          H80   1.081       .  S
C75          C76   1.363       .  D
C76         C344   1.531   1_545  S
C76          C98   1.442       .  S
C81         C218   1.541   1_655  S
C81        C1039   1.544       .  S
C81         C901   1.551       .  S
C81         C109   1.529       .  S
C82         C353   1.541   1_445  S
C82          H89   1.087       .  S
C82          C83   1.360       .  D
C83         C356   1.531   1_445  S
C83         C101   1.438       .  S
C84         C219   1.531   1_655  S
C84        C1040   1.532       .  S
C84         C902   1.531       .  S
C84          H90   1.112       .  S
C85         C489   1.551       .  S
C85          H91   1.081       .  S
C85          C86   1.363       .  D
C86         C492   1.531       .  S
C86          C99   1.443       .  S
C87         C761   1.544   1_545  S
C87          H92   1.087       .  S
C87          C88   1.364       .  D
C88         C764   1.532   1_545  S
C88         C103   1.445       .  S
C93          C94   1.207       .  T
C95          C96   1.205       .  T
C97          C98   1.206       .  T
C99         C100   1.206       .  T
C101        C102   1.204       .  T
C103        C104   1.208       .  T
C105        C110   1.397       .  A
C105        C650   1.407       .  A
C105        H111   1.084       .  S
C106        C107   1.408       .  A
C106       C1193   1.407   1_445  A
C107        C108   1.398       .  A
C107        H112   1.077       .  S
C108        C381   1.407   1_445  A
C108        H113   1.084       .  S
C109        C244   1.407   1_655  A
C109        C926   1.409       .  A
C110        C517   1.409       .  A
C110        H114   1.076       .  S
C115        C120   1.398   1_554  A
C115        C932   1.408       .  A
C115        H121   1.076       .  S
C116        C431   1.528       .  S
C116        C523   1.408       .  A
C116        C253   1.407       .  A
C117        C118   1.398   1_554  A
C117        C388   1.407   1_545  A
C117        H122   1.084       .  S
C118        C391   1.409   1_545  A
C118        H123   1.076       .  S
C119        C254   1.409       .  A
C119        C528   1.407       .  A
C120        C935   1.407   1_455  A
C120        H124   1.083       .  S
C125        C126   1.207       .  T
C127        C128   1.204       .  T
C129        C130   1.206       .  T
C131        C132   1.205       .  T
C133        C134   1.205       .  T
C135        C136   1.206       .  T
Fe137       O153   2.062       .  S
Fe137       O143   2.066       .  S
Fe137       O150   2.065       .  S
Fe137       O142   2.062       .  S
Fe137       O148   1.979       .  S
Fe138       O141   2.060       .  S
Fe138       O145   2.068       .  S
Fe138       O149   2.059       .  S
Fe138       O154   2.068       .  S
Fe138       O148   1.978       .  S
Fe139       O157   2.075       .  S
Fe139       O144   2.063       .  S
Fe139       O151   2.063       .  S
Fe139       O140   2.074       .  S
Fe139       O148   1.977       .  S
O140        C147   1.269       .  A
O141        C155   1.267       .  A
O142        C147   1.267       .  A
O143        C146   1.267       .  A
O144        C156   1.267       .  A
O145        C158   1.268       .  A
C146        O151   1.267       .  A
C146        C268   1.434       .  S
C147        C262   1.437       .  S
O149        C152   1.266       .  A
O150        C152   1.267       .  A
C152        C263   1.431       .  S
O153        C158   1.267       .  A
O154        C156   1.267       .  A
C155        O157   1.269       .  A
C155        C271   1.436       .  S
C156        C266   1.435       .  S
C158        C270   1.434       .  S
C159        C976   1.542   1_455  S
C159        C165   1.550       .  S
C159        C299   1.544       .  S
C159       C1068   1.528       .  S
C160        C567   1.542       .  S
C160        H167   1.087       .  S
C160        C161   1.361       .  D
C161        C570   1.531       .  S
C161        C269   1.441       .  S
C162        C977   1.531   1_455  S
C162        C166   1.531       .  S
C162        C300   1.532       .  S
C162        H304   1.112       .  S
C163        H169   1.087       .  S
C163        C164   1.363       .  D
C164        C272   1.442       .  S
C165        H170   1.081       .  S
C165        C166   1.363       .  D
C166        C267   1.441       .  S
C171        C172   1.550       .  S
C171        C855   1.541   1_455  S
C171        C242   1.528       .  S
C172        H179   1.082       .  S
C172        C173   1.363       .  D
C173        C174   1.531       .  S
C173        C265   1.442       .  S
C174        C856   1.531   1_455  S
C174        H180   1.112       .  S
C175        C715   1.541       .  S
C175        H181   1.087       .  S
C175        C176   1.360       .  D
C176        C718   1.531       .  S
C176        C264   1.438       .  S
C177        C307   1.543       .  S
C177        H182   1.087       .  S
C177        C178   1.364       .  D
C178        C310   1.532       .  S
C178        C261   1.443       .  S
Fe183       O199   2.059       .  S
Fe183       O189   2.071       .  S
Fe183       O196   2.069       .  S
Fe183       O188   2.060       .  S
Fe183       O194   1.981       .  S
Fe184       O187   2.061       .  S
Fe184       O191   2.065       .  S
Fe184       O195   2.061       .  S
Fe184       O200   2.067       .  S
Fe184       O194   1.982       .  S
Fe185       O203   2.071       .  S
Fe185       O190   2.068       .  S
Fe185       O197   2.067       .  S
Fe185       O186   2.071       .  S
Fe185       O194   1.981       .  S
O186        C193   1.268       .  A
O187        C201   1.267       .  A
O188        C193   1.266       .  A
O189        C192   1.268       .  A
O190        C202   1.268       .  A
O191        C204   1.267       .  A
C192        O197   1.268       .  A
C192        C240   1.439       .  S
C193        C233   1.435       .  S
O195        C198   1.267       .  A
O196        C198   1.268       .  A
C198        C231   1.434       .  S
O199        C204   1.266       .  A
O200        C202   1.267       .  A
C201        O203   1.268       .  A
C201        C236   1.436       .  S
C202        C229   1.437       .  S
C204        C238   1.432       .  S
C205        C206   1.545       .  S
C205        C347   1.550       .  S
C205        C753   1.541       .  S
C205        C255   1.529       .  S
C206        H213   1.087       .  S
C206        C207   1.364       .  D
C207        C208   1.532       .  S
C207        C230   1.444       .  S
C208        C348   1.531       .  S
C208        C754   1.531       .  S
C208        H214   1.112       .  S
C209        C885   1.541   1_455  S
C209        H215   1.087       .  S
C209        C210   1.361       .  D
C210        C888   1.531   1_455  S
C210        C232   1.440       .  S
C211        H216   1.081       .  S
C211        C212   1.363       .  D
C212        C234   1.442       .  S
C217        C354   1.541   1_655  S
C217       C1175   1.544       .  S
C217       C1037   1.551       .  S
C217        C245   1.529       .  S
C218        H225   1.087       .  S
C218        C219   1.360       .  D
C219        C237   1.438       .  S
C220        C355   1.531   1_655  S
C220       C1176   1.532       .  S
C220       C1038   1.531       .  S
C220        H226   1.112       .  S
C221        C625   1.551       .  S
C221        H227   1.081       .  S
C221        C222   1.363       .  D
C222        C628   1.531       .  S
C222        C235   1.443       .  S
C223        C489   1.544       .  S
C223        H228   1.087       .  S
C223        C224   1.364       .  D
C224        C492   1.532       .  S
C224        C239   1.445       .  S
C229        C230   1.207       .  T
C231        C232   1.205       .  T
C233        C234   1.206       .  T
C235        C236   1.206       .  T
C237        C238   1.204       .  T
C239        C240   1.208       .  T
C241        C786   1.407       .  A
C241        C246   1.397       .  A
C241        H247   1.084       .  S
C242        C921   1.407   1_455  A
C242        C243   1.408       .  A
C243        C244   1.398       .  A
C243        H248   1.077       .  S
C244        H249   1.084       .  S
C245        C380   1.407   1_655  A
C245       C1062   1.409       .  A
C246        C653   1.409       .  A
C246        H250   1.076       .  S
C251       C1068   1.408       .  A
C251        C256   1.398   1_554  A
C251        H257   1.076       .  S
C252        C567   1.528       .  S
C252        C659   1.408       .  A
C252        C389   1.407       .  A
C253        C254   1.398   1_554  A
C253        H258   1.084       .  S
C254        H259   1.076       .  S
C255        C390   1.409       .  A
C255        C664   1.407       .  A
C256       C1071   1.407   1_455  A
C256        H260   1.083       .  S
C261        C262   1.207       .  T
C263        C264   1.204       .  T
C265        C266   1.206       .  T
C267        C268   1.205       .  T
C269        C270   1.205       .  T
C271        C272   1.206       .  T
Fe273       O289   2.062       .  S
Fe273       O279   2.066       .  S
Fe273       O286   2.065       .  S
Fe273       O278   2.062       .  S
Fe273       O284   1.979       .  S
Fe274       O277   2.060       .  S
Fe274       O281   2.068       .  S
Fe274       O285   2.059       .  S
Fe274       O290   2.068       .  S
Fe274       O284   1.978       .  S
Fe275       O293   2.075       .  S
Fe275       O280   2.063       .  S
Fe275       O287   2.063       .  S
Fe275       O276   2.074       .  S
Fe275       O284   1.977       .  S
O276        C283   1.269       .  A
O277        C291   1.267       .  A
O278        C283   1.267       .  A
O279        C282   1.267       .  A
O280        C292   1.267       .  A
O281        C294   1.267       .  A
C282        O287   1.267       .  A
C282        C404   1.434       .  S
C283        C398   1.437       .  S
O285        C288   1.266       .  A
O286        C288   1.267       .  A
C288        C399   1.431       .  S
O289        C294   1.267       .  A
O290        C292   1.267       .  A
C291        O293   1.269       .  A
C291        C407   1.436       .  S
C292        C402   1.435       .  S
C294        C406   1.434       .  S
C295       C1112   1.542   1_455  S
C295        C301   1.550       .  S
C295       C1204   1.528       .  S
C296        C703   1.542       .  S
C296        H303   1.087       .  S
C296        C297   1.361       .  D
C297        C706   1.531   1_565  S
C297        C405   1.440       .  S
C298       C1113   1.531   1_445  S
C298        C302   1.531   1_545  S
C299        H305   1.087       .  S
C299        C300   1.363       .  D
C300        C408   1.442       .  S
C301        H306   1.081       .  S
C301        C302   1.363       .  D
C302        C403   1.441       .  S
C307        C308   1.550       .  S
C307        C991   1.541   1_455  S
C307        C378   1.528       .  S
C308        H315   1.082       .  S
C308        C309   1.363       .  D
C309        C310   1.531       .  S
C309        C401   1.442       .  S
C310        C992   1.531   1_455  S
C310        H316   1.112       .  S
C311        C443   1.541   1_565  S
C311        H317   1.087       .  S
C311        C312   1.360       .  D
C312        C446   1.531   1_565  S
C312        C400   1.438       .  S
C313        H318   1.087       .  S
C313        C314   1.364       .  D
C314        C397   1.443       .  S
Fe319       O335   2.059       .  S
Fe319       O325   2.071       .  S
Fe319       O332   2.069       .  S
Fe319       O324   2.060       .  S
Fe319       O330   1.981       .  S
Fe320       O323   2.061       .  S
Fe320       O327   2.065       .  S
Fe320       O331   2.061       .  S
Fe320       O336   2.067       .  S
Fe320       O330   1.982       .  S
Fe321       O339   2.071       .  S
Fe321       O326   2.068       .  S
Fe321       O333   2.067       .  S
Fe321       O322   2.071       .  S
Fe321       O330   1.981       .  S
O322        C329   1.268       .  A
O323        C337   1.267       .  A
O324        C329   1.266       .  A
O325        C328   1.268       .  A
O326        C338   1.268       .  A
O327        C340   1.267       .  A
C328        O333   1.268       .  A
C328        C376   1.439       .  S
C329        C369   1.435       .  S
O331        C334   1.267       .  A
O332        C334   1.268       .  A
C334        C367   1.434       .  S
O335        C340   1.266       .  A
O336        C338   1.267       .  A
C337        O339   1.268       .  A
C337        C372   1.436       .  S
C338        C365   1.437       .  S
C340        C374   1.432       .  S
C341        C342   1.545       .  S
C341        C481   1.541   1_565  S
C341        C391   1.529       .  S
C342        H349   1.087       .  S
C342        C343   1.364       .  D
C343        C344   1.532       .  S
C343        C366   1.444       .  S
C344        C482   1.531   1_565  S
C344        H350   1.112       .  S
C345       C1021   1.541   1_455  S
C345        H351   1.087       .  S
C345        C346   1.361       .  D
C346       C1024   1.531   1_455  S
C346        C368   1.440       .  S
C347        H352   1.081       .  S
C347        C348   1.363       .  D
C348        C370   1.442       .  S
C353        C903   1.544   1_565  S
C353       C1173   1.551       .  S
C353        C381   1.529       .  S
C354        H361   1.087       .  S
C354        C355   1.360       .  D
C355        C373   1.438       .  S
C356        C904   1.532   1_565  S
C356       C1174   1.531       .  S
C356        H362   1.112       .  S
C357        C761   1.551       .  S
C357        H363   1.081       .  S
C357        C358   1.363       .  D
C358        C764   1.531       .  S
C358        C371   1.443       .  S
C359        C625   1.544       .  S
C359        H364   1.087       .  S
C359        C360   1.364       .  D
C360        C628   1.532       .  S
C360        C375   1.445       .  S
C365        C366   1.207       .  T
C367        C368   1.205       .  T
C369        C370   1.206       .  T
C371        C372   1.206       .  T
C373        C374   1.204       .  T
C375        C376   1.208       .  T
C377        C514   1.407   1_565  A
C377        C382   1.397       .  A
C377        H383   1.084       .  S
C378       C1057   1.407   1_455  A
C378        C379   1.408       .  A
C379        C380   1.398       .  A
C379        H384   1.077       .  S
C380        H385   1.084       .  S
C381       C1198   1.409       .  A
C382        C789   1.409       .  A
C382        H386   1.076       .  S
C387       C1204   1.408       .  A
C387        C392   1.398   1_554  A
C387        H393   1.076       .  S
C388        C703   1.528       .  S
C388        C795   1.408       .  A
C389        C390   1.398   1_554  A
C389        H394   1.084       .  S
C390        H395   1.076       .  S
C391        C800   1.407       .  A
C392       C1207   1.407   1_455  A
C392        H396   1.084       .  S
C397        C398   1.207       .  T
C399        C400   1.204       .  T
C401        C402   1.206       .  T
C403        C404   1.205       .  T
C405        C406   1.205       .  T
C407        C408   1.206       .  T
Fe409       O425   2.062       .  S
Fe409       O415   2.066       .  S
Fe409       O422   2.065       .  S
Fe409       O414   2.062       .  S
Fe409       O420   1.979       .  S
Fe410       O413   2.060       .  S
Fe410       O417   2.068       .  S
Fe410       O421   2.059       .  S
Fe410       O426   2.068       .  S
Fe410       O420   1.978       .  S
Fe411       O429   2.075       .  S
Fe411       O416   2.063       .  S
Fe411       O423   2.063       .  S
Fe411       O412   2.074       .  S
Fe411       O420   1.977       .  S
O412        C419   1.269       .  A
O413        C427   1.267       .  A
O414        C419   1.267       .  A
O415        C418   1.267       .  A
O416        C428   1.267       .  A
O417        C430   1.268       .  A
C418        O423   1.267       .  A
C418        C540   1.434       .  S
C419        C534   1.437       .  S
O421        C424   1.266       .  A
O422        C424   1.267       .  A
C424        C535   1.431       .  S
O425        C430   1.267       .  A
O426        C428   1.267       .  A
C427        O429   1.269       .  A
C427        C543   1.436       .  S
C428        C538   1.435       .  S
C430        C542   1.434       .  S
C431        C437   1.550       .  S
C431        C571   1.544       .  S
C432        C839   1.542       .  S
C432        H439   1.087       .  S
C432        C433   1.361       .  D
C433        C842   1.531       .  S
C433        C541   1.440       .  S
C434        C438   1.531       .  S
C434        C572   1.532       .  S
C434        H576   1.112       .  S
C435        C703   1.544   1_545  S
C435        H441   1.087       .  S
C435        C436   1.363       .  D
C436        C706   1.532       .  S
C436        C544   1.442       .  S
C437        H442   1.081       .  S
C437        C438   1.363       .  D
C438        C539   1.441       .  S
H440        C706   1.112       .  S
C443        C444   1.550       .  S
C443        C721   1.543   1_545  S
C443        C514   1.528       .  S
C444        H451   1.082       .  S
C444        C445   1.363       .  D
C445        C446   1.531       .  S
C445        C537   1.442       .  S
C446        C722   1.532   1_545  S
C446        H452   1.112       .  S
C447        C987   1.541       .  S
C447        H453   1.087       .  S
C447        C448   1.360       .  D
C448        C990   1.531       .  S
C448        C536   1.438       .  S
C449        C579   1.543       .  S
C449        H454   1.087       .  S
C449        C450   1.364       .  D
C450        C582   1.532       .  S
C450        C533   1.443       .  S
Fe455       O471   2.059       .  S
Fe455       O461   2.071       .  S
Fe455       O468   2.069       .  S
Fe455       O460   2.060       .  S
Fe455       O466   1.981       .  S
Fe456       O459   2.061       .  S
Fe456       O463   2.065       .  S
Fe456       O467   2.061       .  S
Fe456       O472   2.067       .  S
Fe456       O466   1.982       .  S
Fe457       O475   2.071       .  S
Fe457       O462   2.068       .  S
Fe457       O469   2.067       .  S
Fe457       O458   2.071       .  S
Fe457       O466   1.981       .  S
O458        C465   1.268       .  A
O459        C473   1.267       .  A
O460        C465   1.266       .  A
O461        C464   1.268       .  A
O462        C474   1.268       .  A
O463        C476   1.267       .  A
C464        O469   1.268       .  A
C464        C512   1.439       .  S
C465        C505   1.435       .  S
O467        C470   1.267       .  A
O468        C470   1.268       .  A
C470        C503   1.434       .  S
O471        C476   1.266       .  A
O472        C474   1.267       .  A
C473        O475   1.268       .  A
C473        C508   1.436       .  S
C474        C501   1.437       .  S
C476        C510   1.432       .  S
C477        C478   1.545       .  S
C477        C619   1.550       .  S
C477       C1025   1.541       .  S
C477        C527   1.529       .  S
C478        H485   1.087       .  S
C478        C479   1.364       .  D
C479        C480   1.532       .  S
C479        C502   1.444       .  S
C480        C620   1.531       .  S
C480       C1026   1.531       .  S
C480        H486   1.112       .  S
C481        H487   1.087       .  S
C481        C482   1.361       .  D
C482        C504   1.440       .  S
C483        C749   1.550   1_545  S
C483        H488   1.081       .  S
C483        C484   1.363       .  D
C484        C752   1.531   1_545  S
C484        C506   1.442       .  S
C489        C626   1.541       .  S
C489        C517   1.529       .  S
C490        C761   1.541   1_545  S
C490        H497   1.087       .  S
C490        C491   1.360       .  D
C491        C764   1.531   1_545  S
C491        C509   1.438       .  S
C492        C627   1.531       .  S
C492        H498   1.112       .  S
C493        C897   1.551       .  S
C493        H499   1.081       .  S
C493        C494   1.363       .  D
C494        C900   1.531       .  S
C494        C507   1.443       .  S
C495       C1169   1.544   1_545  S
C495        H500   1.087       .  S
C495        C496   1.364       .  D
C496       C1172   1.532   1_545  S
C496        C511   1.445       .  S
C501        C502   1.207       .  T
C503        C504   1.205       .  T
C505        C506   1.206       .  T
C507        C508   1.206       .  T
C509        C510   1.204       .  T
C511        C512   1.208       .  T
C513       C1058   1.407       .  A
C513        C518   1.397       .  A
C513        H519   1.084       .  S
C514        C515   1.408       .  A
C515        C516   1.398       .  A
C515        H520   1.077       .  S
C516        C789   1.407   1_545  A
C516        H521   1.084       .  S
C517        C652   1.407       .  A
C518        C925   1.409       .  A
C518        H522   1.076       .  S
C523        C528   1.398   1_554  A
C523        H529   1.076       .  S
C524        C839   1.528       .  S
C524        C931   1.408       .  A
C524        C661   1.407       .  A
C525        C796   1.407   1_545  A
C525        C526   1.398   1_554  A
C525        H530   1.084       .  S
C526        C799   1.409   1_545  A
C526        H531   1.076       .  S
C527        C662   1.409       .  A
C527        C936   1.407       .  A
C528        H532   1.084       .  S
C533        C534   1.207       .  T
C535        C536   1.204       .  T
C537        C538   1.206       .  T
C539        C540   1.205       .  T
C541        C542   1.205       .  T
C543        C544   1.206       .  T
Fe545       O561   2.062       .  S
Fe545       O551   2.066       .  S
Fe545       O558   2.065       .  S
Fe545       O550   2.062       .  S
Fe545       O556   1.979       .  S
Fe546       O549   2.060       .  S
Fe546       O553   2.068       .  S
Fe546       O557   2.059       .  S
Fe546       O562   2.068       .  S
Fe546       O556   1.978       .  S
Fe547       O565   2.075       .  S
Fe547       O552   2.063       .  S
Fe547       O559   2.063       .  S
Fe547       O548   2.074       .  S
Fe547       O556   1.977       .  S
O548        C555   1.269       .  A
O549        C563   1.267       .  A
O550        C555   1.267       .  A
O551        C554   1.267       .  A
O552        C564   1.267       .  A
O553        C566   1.268       .  A
C554        O559   1.267       .  A
C554        C676   1.434       .  S
C555        C670   1.437       .  S
O557        C560   1.266       .  A
O558        C560   1.267       .  A
C560        C671   1.431       .  S
O561        C566   1.267       .  A
O562        C564   1.267       .  A
C563        O565   1.269       .  A
C563        C679   1.436       .  S
C564        C674   1.435       .  S
C566        C678   1.434       .  S
C567        C573   1.550       .  S
C567        C707   1.544       .  S
C568        C975   1.542       .  S
C568        H575   1.087       .  S
C568        C569   1.361       .  D
C569        C978   1.531       .  S
C569        C677   1.441       .  S
C570        C574   1.531       .  S
C570        C708   1.532       .  S
C570        H712   1.112       .  S
C571        H577   1.087       .  S
C571        C572   1.363       .  D
C572        C680   1.442       .  S
C573        H578   1.081       .  S
C573        C574   1.363       .  D
C574        C675   1.441       .  S
C579        C580   1.550       .  S
C579        C650   1.528       .  S
C580        H587   1.082       .  S
C580        C581   1.363       .  D
C581        C582   1.531       .  S
C581        C673   1.442       .  S
C582        H588   1.112       .  S
C583       C1123   1.541       .  S
C583        H589   1.087       .  S
C583        C584   1.360       .  D
C584       C1126   1.531       .  S
C584        C672   1.438       .  S
C585        C715   1.543       .  S
C585        H590   1.087       .  S
C585        C586   1.364       .  D
C586        C718   1.532       .  S
C586        C669   1.443       .  S
Fe591       O607   2.059       .  S
Fe591       O597   2.071       .  S
Fe591       O604   2.069       .  S
Fe591       O596   2.060       .  S
Fe591       O602   1.981       .  S
Fe592       O595   2.061       .  S
Fe592       O599   2.065       .  S
Fe592       O603   2.061       .  S
Fe592       O608   2.067       .  S
Fe592       O602   1.982       .  S
Fe593       O611   2.071       .  S
Fe593       O598   2.068       .  S
Fe593       O605   2.067       .  S
Fe593       O594   2.071       .  S
Fe593       O602   1.981       .  S
O594        C601   1.268       .  A
O595        C609   1.267       .  A
O596        C601   1.266       .  A
O597        C600   1.268       .  A
O598        C610   1.268       .  A
O599        C612   1.267       .  A
C600        O605   1.268       .  A
C600        C648   1.439       .  S
C601        C641   1.435       .  S
O603        C606   1.267       .  A
O604        C606   1.268       .  A
C606        C639   1.434       .  S
O607        C612   1.266       .  A
O608        C610   1.267       .  A
C609        O611   1.268       .  A
C609        C644   1.436       .  S
C610        C637   1.437       .  S
C612        C646   1.432       .  S
C613        C614   1.545       .  S
C613        C755   1.550       .  S
C613       C1161   1.541       .  S
C613        C663   1.529       .  S
C614        H621   1.087       .  S
C614        C615   1.364       .  D
C615        C616   1.532       .  S
C615        C638   1.444       .  S
C616        C756   1.531       .  S
C616       C1162   1.531       .  S
C616        H622   1.112       .  S
C617        H623   1.087       .  S
C617        C618   1.361       .  D
C618        C640   1.440       .  S
C619        H624   1.081       .  S
C619        C620   1.363       .  D
C620        C642   1.442       .  S
C625        C762   1.541       .  S
C625        C653   1.529       .  S
C626        H633   1.087       .  S
C626        C627   1.360       .  D
C627        C645   1.438       .  S
C628        C763   1.531       .  S
C628        H634   1.112       .  S
C629       C1033   1.551       .  S
C629        H635   1.081       .  S
C629        C630   1.363       .  D
C630       C1036   1.531       .  S
C630        C643   1.443       .  S
C631        C897   1.544       .  S
C631        H636   1.087       .  S
C631        C632   1.364       .  D
C632        C900   1.532       .  S
C632        C647   1.445       .  S
C637        C638   1.207       .  T
C639        C640   1.205       .  T
C641        C642   1.206       .  T
C643        C644   1.206       .  T
C645        C646   1.204       .  T
C647        C648   1.208       .  T
C649       C1194   1.407       .  A
C649        C654   1.397       .  A
C649        H655   1.084       .  S
C650        C651   1.408       .  A
C651        C652   1.398       .  A
C651        H656   1.077       .  S
C652        H657   1.084       .  S
C653        C788   1.407       .  A
C654       C1061   1.409       .  A
C654        H658   1.076       .  S
C659        C664   1.398   1_554  A
C659        H665   1.076       .  S
C660        C975   1.528       .  S
C660       C1067   1.408       .  A
C660        C797   1.407       .  A
C661        C662   1.398   1_554  A
C661        H666   1.084       .  S
C662        H667   1.076       .  S
C663        C798   1.409       .  A
C663       C1072   1.407       .  A
C664        H668   1.083       .  S
C669        C670   1.207       .  T
C671        C672   1.204       .  T
C673        C674   1.206       .  T
C675        C676   1.205       .  T
C677        C678   1.205       .  T
C679        C680   1.206       .  T
Fe681       O697   2.062       .  S
Fe681       O687   2.066       .  S
Fe681       O694   2.065       .  S
Fe681       O686   2.062       .  S
Fe681       O692   1.979       .  S
Fe682       O685   2.060       .  S
Fe682       O689   2.068       .  S
Fe682       O693   2.059       .  S
Fe682       O698   2.068       .  S
Fe682       O692   1.978       .  S
Fe683       O701   2.075       .  S
Fe683       O688   2.063       .  S
Fe683       O695   2.063       .  S
Fe683       O684   2.074       .  S
Fe683       O692   1.977       .  S
O684        C691   1.269       .  A
O685        C699   1.267       .  A
O686        C691   1.267       .  A
O687        C690   1.267       .  A
O688        C700   1.267       .  A
O689        C702   1.267       .  A
C690        O695   1.267       .  A
C690        C812   1.434       .  S
C691        C806   1.437       .  S
O693        C696   1.266       .  A
O694        C696   1.267       .  A
C696        C807   1.431       .  S
O697        C702   1.267       .  A
O698        C700   1.267       .  A
C699        O701   1.269       .  A
C699        C815   1.436       .  S
C700        C810   1.435       .  S
C702        C814   1.434       .  S
C703        C709   1.550       .  S
C704       C1111   1.542       .  S
C704        H711   1.087       .  S
C704        C705   1.361       .  D
C705       C1114   1.531   1_565  S
C705        C813   1.440       .  S
C706        C710   1.531   1_545  S
C707        H713   1.087       .  S
C707        C708   1.363       .  D
C708        C816   1.442       .  S
C709        H714   1.081       .  S
C709        C710   1.363       .  D
C710        C811   1.441       .  S
C715        C716   1.550       .  S
C715        C786   1.528       .  S
C716        H723   1.082       .  S
C716        C717   1.363       .  D
C717        C718   1.531       .  S
C717        C809   1.442       .  S
C718        H724   1.112       .  S
C719        C851   1.541   1_565  S
C719        H725   1.087       .  S
C719        C720   1.360       .  D
C720        C854   1.531   1_565  S
C720        C808   1.438       .  S
C721        H726   1.087       .  S
C721        C722   1.364       .  D
C722        C805   1.443       .  S
Fe727       O743   2.059       .  S
Fe727       O733   2.071       .  S
Fe727       O740   2.069       .  S
Fe727       O732   2.060       .  S
Fe727       O738   1.981       .  S
Fe728       O731   2.061       .  S
Fe728       O735   2.065       .  S
Fe728       O739   2.061       .  S
Fe728       O744   2.067       .  S
Fe728       O738   1.982       .  S
Fe729       O747   2.071       .  S
Fe729       O734   2.068       .  S
Fe729       O741   2.067       .  S
Fe729       O730   2.071       .  S
Fe729       O738   1.981       .  S
O730        C737   1.268       .  A
O731        C745   1.267       .  A
O732        C737   1.266       .  A
O733        C736   1.268       .  A
O734        C746   1.268       .  A
O735        C748   1.267       .  A
C736        O741   1.268       .  A
C736        C784   1.439       .  S
C737        C777   1.435       .  S
O739        C742   1.267       .  A
O740        C742   1.268       .  A
C742        C775   1.434       .  S
O743        C748   1.266       .  A
O744        C746   1.267       .  A
C745        O747   1.268       .  A
C745        C780   1.436       .  S
C746        C773   1.437       .  S
C748        C782   1.432       .  S
C749        C750   1.545       .  S
C749        C889   1.541   1_565  S
C749        C799   1.529       .  S
C750        H757   1.087       .  S
C750        C751   1.364       .  D
C751        C752   1.532       .  S
C751        C774   1.444       .  S
C752        C890   1.531   1_565  S
C752        H758   1.112       .  S
C753        H759   1.087       .  S
C753        C754   1.361       .  D
C754        C776   1.440       .  S
C755        H760   1.081       .  S
C755        C756   1.363       .  D
C756        C778   1.442       .  S
C761        C789   1.529       .  S
C762        H769   1.087       .  S
C762        C763   1.360       .  D
C763        C781   1.438       .  S
C764        H770   1.112       .  S
C765       C1169   1.551       .  S
C765        H771   1.081       .  S
C765        C766   1.363       .  D
C766       C1172   1.531       .  S
C766        C779   1.443       .  S
C767       C1033   1.544       .  S
C767        H772   1.087       .  S
C767        C768   1.364       .  D
C768       C1036   1.532       .  S
C768        C783   1.445       .  S
C773        C774   1.207       .  T
C775        C776   1.205       .  T
C777        C778   1.206       .  T
C779        C780   1.206       .  T
C781        C782   1.204       .  T
C783        C784   1.208       .  T
C785        C922   1.407   1_565  A
C785        C790   1.397       .  A
C785        H791   1.084       .  S
C786        C787   1.408       .  A
C787        C788   1.398       .  A
C787        H792   1.077       .  S
C788        H793   1.084       .  S
C790       C1197   1.409       .  A
C790        H794   1.076       .  S
C795        C800   1.398   1_554  A
C795        H801   1.076       .  S
C796       C1111   1.528       .  S
C796       C1203   1.408       .  A
C797        C798   1.398   1_554  A
C797        H802   1.084       .  S
C798        H803   1.076       .  S
C799       C1208   1.407       .  A
C800        H804   1.084       .  S
C805        C806   1.207       .  T
C807        C808   1.204       .  T
C809        C810   1.206       .  T
C811        C812   1.205       .  T
C813        C814   1.205       .  T
C815        C816   1.206       .  T
Fe817       O833   2.062       .  S
Fe817       O823   2.066       .  S
Fe817       O830   2.065       .  S
Fe817       O822   2.062       .  S
Fe817       O828   1.979       .  S
Fe818       O821   2.060       .  S
Fe818       O825   2.068       .  S
Fe818       O829   2.059       .  S
Fe818       O834   2.068       .  S
Fe818       O828   1.978       .  S
Fe819       O837   2.075       .  S
Fe819       O824   2.063       .  S
Fe819       O831   2.063       .  S
Fe819       O820   2.074       .  S
Fe819       O828   1.977       .  S
O820        C827   1.269       .  A
O821        C835   1.267       .  A
O822        C827   1.267       .  A
O823        C826   1.267       .  A
O824        C836   1.267       .  A
O825        C838   1.268       .  A
C826        O831   1.267       .  A
C826        C948   1.434       .  S
C827        C942   1.437       .  S
O829        C832   1.266       .  A
O830        C832   1.267       .  A
C832        C943   1.431       .  S
O833        C838   1.267       .  A
O834        C836   1.267       .  A
C835        O837   1.269       .  A
C835        C951   1.436       .  S
C836        C946   1.435       .  S
C838        C950   1.434       .  S
C839        C845   1.550       .  S
C839        C979   1.544       .  S
C840        H847   1.087       .  S
C840        C841   1.361       .  D
C841        C949   1.440       .  S
C842        C846   1.531       .  S
C842        C980   1.532       .  S
C842        H984   1.112       .  S
C843       C1111   1.544   1_545  S
C843        H849   1.087       .  S
C843        C844   1.363       .  D
C844       C1114   1.532       .  S
C844        C952   1.442       .  S
C845        H850   1.081       .  S
C845        C846   1.363       .  D
C846        C947   1.441       .  S
H848       C1114   1.112       .  S
C851        C852   1.550       .  S
C851       C1129   1.543   1_545  S
C851        C922   1.528       .  S
C852        H859   1.082       .  S
C852        C853   1.363       .  D
C853        C854   1.531       .  S
C853        C945   1.442       .  S
C854       C1130   1.532   1_545  S
C854        H860   1.112       .  S
C855        H861   1.087       .  S
C855        C856   1.360       .  D
C856        C944   1.438       .  S
C857        C987   1.543       .  S
C857        H862   1.087       .  S
C857        C858   1.364       .  D
C858        C990   1.532       .  S
C858        C941   1.443       .  S
Fe863       O879   2.059       .  S
Fe863       O869   2.071       .  S
Fe863       O876   2.069       .  S
Fe863       O868   2.060       .  S
Fe863       O874   1.981       .  S
Fe864       O867   2.061       .  S
Fe864       O871   2.065       .  S
Fe864       O875   2.061       .  S
Fe864       O880   2.067       .  S
Fe864       O874   1.982       .  S
Fe865       O883   2.071       .  S
Fe865       O870   2.068       .  S
Fe865       O877   2.067       .  S
Fe865       O866   2.071       .  S
Fe865       O874   1.981       .  S
O866        C873   1.268       .  A
O867        C881   1.267       .  A
O868        C873   1.266       .  A
O869        C872   1.268       .  A
O870        C882   1.268       .  A
O871        C884   1.267       .  A
C872        O877   1.268       .  A
C872        C920   1.439       .  S
C873        C913   1.435       .  S
O875        C878   1.267       .  A
O876        C878   1.268       .  A
C878        C911   1.434       .  S
O879        C884   1.266       .  A
O880        C882   1.267       .  A
C881        O883   1.268       .  A
C881        C916   1.436       .  S
C882        C909   1.437       .  S
C884        C918   1.432       .  S
C885        C886   1.545       .  S
C885       C1027   1.550       .  S
C885        C935   1.529       .  S
C886        H893   1.087       .  S
C886        C887   1.364       .  D
C887        C888   1.532       .  S
C887        C910   1.444       .  S
C888       C1028   1.531       .  S
C888        H894   1.112       .  S
C889        H895   1.087       .  S
C889        C890   1.361       .  D
C890        C912   1.440       .  S
C891       C1157   1.550   1_545  S
C891        H896   1.081       .  S
C891        C892   1.363       .  D
C892       C1160   1.531   1_545  S
C892        C914   1.442       .  S
C897       C1034   1.541       .  S
C897        C925   1.529       .  S
C898       C1169   1.541   1_545  S
C898        H905   1.087       .  S
C898        C899   1.360       .  D
C899       C1172   1.531   1_545  S
C899        C917   1.438       .  S
C900       C1035   1.531       .  S
C900        H906   1.112       .  S
C901        H907   1.081       .  S
C901        C902   1.363       .  D
C902        C915   1.443       .  S
C903        H908   1.087       .  S
C903        C904   1.364       .  D
C904        C919   1.445       .  S
C909        C910   1.207       .  T
C911        C912   1.205       .  T
C913        C914   1.206       .  T
C915        C916   1.206       .  T
C917        C918   1.204       .  T
C919        C920   1.208       .  T
C921        C926   1.397       .  A
C921        H927   1.084       .  S
C922        C923   1.408       .  A
C923        C924   1.398       .  A
C923        H928   1.077       .  S
C924       C1197   1.407   1_545  A
C924        H929   1.084       .  S
C925       C1060   1.407       .  A
C926        H930   1.076       .  S
C931        C936   1.398   1_554  A
C931        H937   1.076       .  S
C932       C1069   1.407   1_455  A
C933       C1204   1.407   1_645  A
C933        C934   1.398   1_554  A
C933        H938   1.084       .  S
C934       C1207   1.409   1_545  A
C934        H939   1.076       .  S
C935       C1070   1.409       .  A
C936        H940   1.083       .  S
C941        C942   1.207       .  T
C943        C944   1.204       .  T
C945        C946   1.206       .  T
C947        C948   1.205       .  T
C949        C950   1.205       .  T
C951        C952   1.206       .  T
Fe953       O969   2.062       .  S
Fe953       O959   2.066       .  S
Fe953       O966   2.065       .  S
Fe953       O958   2.062       .  S
Fe953       O964   1.979       .  S
Fe954       O957   2.060       .  S
Fe954       O961   2.068       .  S
Fe954       O965   2.059       .  S
Fe954       O970   2.068       .  S
Fe954       O964   1.978       .  S
Fe955       O973   2.075       .  S
Fe955       O960   2.063       .  S
Fe955       O967   2.063       .  S
Fe955       O956   2.074       .  S
Fe955       O964   1.977       .  S
O956        C963   1.269       .  A
O957        C971   1.267       .  A
O958        C963   1.267       .  A
O959        C962   1.267       .  A
O960        C972   1.267       .  A
O961        C974   1.268       .  A
C962        O967   1.267       .  A
C962       C1084   1.434       .  S
C963       C1078   1.437       .  S
O965        C968   1.266       .  A
O966        C968   1.267       .  A
C968       C1079   1.431       .  S
O969        C974   1.267       .  A
O970        C972   1.267       .  A
C971        O973   1.269       .  A
C971       C1087   1.436       .  S
C972       C1082   1.435       .  S
C974       C1086   1.434       .  S
C975        C981   1.550       .  S
C975       C1115   1.544       .  S
C976        H983   1.087       .  S
C976        C977   1.361       .  D
C977       C1085   1.441       .  S
C978        C982   1.531       .  S
C978       C1116   1.532       .  S
C978       H1120   1.112       .  S
C979        H985   1.087       .  S
C979        C980   1.363       .  D
C980       C1088   1.442       .  S
C981        H986   1.081       .  S
C981        C982   1.363       .  D
C982       C1083   1.441       .  S
C987        C988   1.550       .  S
C987       C1058   1.528       .  S
C988        H995   1.082       .  S
C988        C989   1.363       .  D
C989        C990   1.531       .  S
C989       C1081   1.442       .  S
C990        H996   1.112       .  S
C991        H997   1.087       .  S
C991        C992   1.360       .  D
C992       C1080   1.438       .  S
C993       C1123   1.543       .  S
C993        H998   1.087       .  S
C993        C994   1.364       .  D
C994       C1126   1.532       .  S
C994       C1077   1.443       .  S
Fe999      O1015   2.059       .  S
Fe999      O1005   2.071       .  S
Fe999      O1012   2.069       .  S
Fe999      O1004   2.060       .  S
Fe999      O1010   1.981       .  S
Fe1000     O1003   2.061       .  S
Fe1000     O1007   2.065       .  S
Fe1000     O1011   2.061       .  S
Fe1000     O1016   2.067       .  S
Fe1000     O1010   1.982       .  S
Fe1001     O1019   2.071       .  S
Fe1001     O1006   2.068       .  S
Fe1001     O1013   2.067       .  S
Fe1001     O1002   2.071       .  S
Fe1001     O1010   1.981       .  S
O1002      C1009   1.268       .  A
O1003      C1017   1.267       .  A
O1004      C1009   1.266       .  A
O1005      C1008   1.268       .  A
O1006      C1018   1.268       .  A
O1007      C1020   1.267       .  A
C1008      O1013   1.268       .  A
C1008      C1056   1.439       .  S
C1009      C1049   1.435       .  S
O1011      C1014   1.267       .  A
O1012      C1014   1.268       .  A
C1014      C1047   1.434       .  S
O1015      C1020   1.266       .  A
O1016      C1018   1.267       .  A
C1017      O1019   1.268       .  A
C1017      C1052   1.436       .  S
C1018      C1045   1.437       .  S
C1020      C1054   1.432       .  S
C1021      C1022   1.545       .  S
C1021      C1163   1.550       .  S
C1021      C1071   1.529       .  S
C1022      H1029   1.087       .  S
C1022      C1023   1.364       .  D
C1023      C1024   1.532       .  S
C1023      C1046   1.444       .  S
C1024      C1164   1.531       .  S
C1024      H1030   1.112       .  S
C1025      H1031   1.087       .  S
C1025      C1026   1.361       .  D
C1026      C1048   1.440       .  S
C1027      H1032   1.081       .  S
C1027      C1028   1.363       .  D
C1028      C1050   1.442       .  S
C1033      C1170   1.541       .  S
C1033      C1061   1.529       .  S
C1034      H1041   1.087       .  S
C1034      C1035   1.360       .  D
C1035      C1053   1.438       .  S
C1036      C1171   1.531       .  S
C1036      H1042   1.112       .  S
C1037      H1043   1.081       .  S
C1037      C1038   1.363       .  D
C1038      C1051   1.443       .  S
C1039      H1044   1.087       .  S
C1039      C1040   1.364       .  D
C1040      C1055   1.445       .  S
C1045      C1046   1.207       .  T
C1047      C1048   1.205       .  T
C1049      C1050   1.206       .  T
C1051      C1052   1.206       .  T
C1053      C1054   1.204       .  T
C1055      C1056   1.208       .  T
C1057      C1062   1.397       .  A
C1057      H1063   1.084       .  S
C1058      C1059   1.408       .  A
C1059      C1060   1.398       .  A
C1059      H1064   1.077       .  S
C1060      H1065   1.084       .  S
C1061      C1196   1.407       .  A
C1062      H1066   1.076       .  S
C1067      C1072   1.398   1_554  A
C1067      H1073   1.076       .  S
C1068      C1205   1.407   1_455  A
C1069      C1070   1.398   1_554  A
C1069      H1074   1.084       .  S
C1070      H1075   1.076       .  S
C1071      C1206   1.409       .  A
C1072      H1076   1.083       .  S
C1077      C1078   1.207       .  T
C1079      C1080   1.204       .  T
C1081      C1082   1.206       .  T
C1083      C1084   1.205       .  T
C1085      C1086   1.205       .  T
C1087      C1088   1.206       .  T
Fe1089     O1105   2.062       .  S
Fe1089     O1095   2.066       .  S
Fe1089     O1102   2.065       .  S
Fe1089     O1094   2.062       .  S
Fe1089     O1100   1.979       .  S
Fe1090     O1093   2.060       .  S
Fe1090     O1097   2.068       .  S
Fe1090     O1101   2.059       .  S
Fe1090     O1106   2.068       .  S
Fe1090     O1100   1.978       .  S
Fe1091     O1109   2.075       .  S
Fe1091     O1096   2.063       .  S
Fe1091     O1103   2.063       .  S
Fe1091     O1092   2.074       .  S
Fe1091     O1100   1.977       .  S
O1092      C1099   1.269       .  A
O1093      C1107   1.267       .  A
O1094      C1099   1.267       .  A
O1095      C1098   1.267       .  A
O1096      C1108   1.267       .  A
O1097      C1110   1.267       .  A
C1098      O1103   1.267       .  A
C1098      C1220   1.434       .  S
C1099      C1214   1.437       .  S
O1101      C1104   1.266       .  A
O1102      C1104   1.267       .  A
C1104      C1215   1.431       .  S
O1105      C1110   1.267       .  A
O1106      C1108   1.267       .  A
C1107      O1109   1.269       .  A
C1107      C1223   1.436       .  S
C1108      C1218   1.435       .  S
C1110      C1222   1.434       .  S
C1111      C1117   1.550       .  S
C1112      H1119   1.087       .  S
C1112      C1113   1.361       .  D
C1113      C1221   1.440       .  S
C1114      C1118   1.531   1_545  S
C1115      H1121   1.087       .  S
C1115      C1116   1.363       .  D
C1116      C1224   1.442       .  S
C1117      H1122   1.081       .  S
C1117      C1118   1.363       .  D
C1118      C1219   1.441       .  S
C1123      C1124   1.550       .  S
C1123      C1194   1.528       .  S
C1124      H1131   1.082       .  S
C1124      C1125   1.363       .  D
C1125      C1126   1.531       .  S
C1125      C1217   1.442       .  S
C1126      H1132   1.112       .  S
C1127      H1133   1.087       .  S
C1127      C1128   1.360       .  D
C1128      C1216   1.438       .  S
C1129      H1134   1.087       .  S
C1129      C1130   1.364       .  D
C1130      C1213   1.443       .  S
Fe1135     O1151   2.059       .  S
Fe1135     O1141   2.071       .  S
Fe1135     O1148   2.069       .  S
Fe1135     O1140   2.060       .  S
Fe1135     O1146   1.981       .  S
Fe1136     O1139   2.061       .  S
Fe1136     O1143   2.065       .  S
Fe1136     O1147   2.061       .  S
Fe1136     O1152   2.067       .  S
Fe1136     O1146   1.982       .  S
Fe1137     O1155   2.071       .  S
Fe1137     O1142   2.068       .  S
Fe1137     O1149   2.067       .  S
Fe1137     O1138   2.071       .  S
Fe1137     O1146   1.981       .  S
O1138      C1145   1.268       .  A
O1139      C1153   1.267       .  A
O1140      C1145   1.266       .  A
O1141      C1144   1.268       .  A
O1142      C1154   1.268       .  A
O1143      C1156   1.267       .  A
C1144      O1149   1.268       .  A
C1144      C1192   1.439       .  S
C1145      C1185   1.435       .  S
O1147      C1150   1.267       .  A
O1148      C1150   1.268       .  A
C1150      C1183   1.434       .  S
O1151      C1156   1.266       .  A
O1152      C1154   1.267       .  A
C1153      O1155   1.268       .  A
C1153      C1188   1.436       .  S
C1154      C1181   1.437       .  S
C1156      C1190   1.432       .  S
C1157      C1158   1.545       .  S
C1157      C1207   1.529       .  S
C1158      H1165   1.087       .  S
C1158      C1159   1.364       .  D
C1159      C1160   1.532       .  S
C1159      C1182   1.444       .  S
C1160      H1166   1.112       .  S
C1161      H1167   1.087       .  S
C1161      C1162   1.361       .  D
C1162      C1184   1.440       .  S
C1163      H1168   1.081       .  S
C1163      C1164   1.363       .  D
C1164      C1186   1.442       .  S
C1169      C1197   1.529       .  S
C1170      H1177   1.087       .  S
C1170      C1171   1.360       .  D
C1171      C1189   1.438       .  S
C1172      H1178   1.112       .  S
C1173      H1179   1.081       .  S
C1173      C1174   1.363       .  D
C1174      C1187   1.443       .  S
C1175      H1180   1.087       .  S
C1175      C1176   1.364       .  D
C1176      C1191   1.445       .  S
C1181      C1182   1.207       .  T
C1183      C1184   1.205       .  T
C1185      C1186   1.206       .  T
C1187      C1188   1.206       .  T
C1189      C1190   1.204       .  T
C1191      C1192   1.208       .  T
C1193      C1198   1.397       .  A
C1193      H1199   1.084       .  S
C1194      C1195   1.408       .  A
C1195      C1196   1.398       .  A
C1195      H1200   1.077       .  S
C1196      H1201   1.084       .  S
C1198      H1202   1.076       .  S
C1203      C1208   1.398   1_554  A
C1203      H1209   1.076       .  S
C1205      C1206   1.398   1_554  A
C1205      H1210   1.084       .  S
C1206      H1211   1.076       .  S
C1208      H1212   1.084       .  S
C1213      C1214   1.207       .  T
C1215      C1216   1.204       .  T
C1217      C1218   1.206       .  T
C1219      C1220   1.205       .  T
C1221      C1222   1.205       .  T
C1223      C1224   1.206       .  T
