geometry optimzed in LAMMPS
_audit_creation_date              2020-12-01 
_audit_creation_method            'lammps2cif' 
_symmetry_space_group_name_H-M    'P1' 
_symmetry_Int_Tables_number       1 
_symmetry_cell_setting            triclinic 
loop_ 
_symmetry_equiv_pos_as_xyz 
  x,y,z 
_cell_length_a                    29.15994742 
_cell_length_b                    29.184954725923408 
_cell_length_c                    25.084811337390615 
_cell_angle_alpha                 89.15255475216638 
_cell_angle_beta                  91.38703605422498 
_cell_angle_gamma                 119.09631422901137 
loop_ 
_atom_site_label 
_atom_site_type_symbol 
_atom_site_fract_x 
_atom_site_fract_y 
_atom_site_fract_z 
_atom_site_charge 
C1          C  0.46976239  0.68292191  0.08985560     0.81200
N2          N  0.46446766  0.71699187  0.05635511    -0.77100
C3          C  0.46315393  0.75941675  0.07603155     0.83700
N4          N  0.46806840  0.76826828  0.12976224    -0.77000
C5          C  0.47315769  0.73387595  0.16322905     0.83800
N6          N  0.47306090  0.69101932  0.14291050    -0.78700
C7          C  0.47515588  0.69976913  0.30397803     0.81200
N8          N  0.47181899  0.69815637  0.25040886    -0.77100
C9          C  0.47712510  0.73984341  0.22145872     0.83700
N10         N  0.48727894  0.78499970  0.24677499    -0.77000
C11         C  0.49222204  0.78746104  0.30122450     0.83800
N12         N  0.48576528  0.74457133  0.32951411    -0.78700
C13         C  0.21753835  0.80134271  0.29918581     0.81200
N14         N  0.21525453  0.79399921  0.24645227    -0.80400
C15         C  0.17784211  0.74974505  0.22366038     0.83700
N16         N  0.14107737  0.71115083  0.25491804    -0.77000
C17         C  0.14245691  0.71827305  0.30898285     0.83800
N18         N  0.18165654  0.76317396  0.33105820    -0.78700
C19         C  0.23925616  0.77747618  0.09202331     0.81200
N20         N  0.21040748  0.73124364  0.06688908    -0.77100
C21         C  0.16802034  0.69162158  0.09025691     0.83700
N22         N  0.15520935  0.69741356  0.14073977    -0.77000
C23         C  0.18487134  0.74344746  0.16685573     0.83800
N24         N  0.22653959  0.78352818  0.14197020    -0.78700
C25         C  0.13932965  0.42238955  0.08548161     0.81200
N26         N  0.13710131  0.42628090  0.13908948    -0.77100
C27         C  0.17363921  0.42380827  0.17207061     0.83700
N28         N  0.21303543  0.41805797  0.15109258    -0.77000
C29         C  0.21507047  0.41298915  0.09758641     0.83800
N30         N  0.17848983  0.41579640  0.06495335    -0.78700
C31         C  0.13495909  0.45562610  0.29868915     0.81200
N32         N  0.17576775  0.46337270  0.33180701    -0.77100
C33         C  0.21491004  0.45509275  0.31436862     0.83700
N34         N  0.21373159  0.44028165  0.26277893    -0.77000
C35         C  0.17340117  0.43369994  0.22929071     0.83800
N36         N  0.13404792  0.44076115  0.24780267    -0.78700
C37         C  0.73313556  0.25211733  0.31321349     0.81200
N38         N  0.73343937  0.25781914  0.25953246    -0.77100
C39         C  0.69983114  0.21739778  0.22783031     0.83700
N40         N  0.66553573  0.17038414  0.25041777    -0.77000
C41         C  0.66616737  0.16437908  0.30454797     0.83800
N42         N  0.69994068  0.20531133  0.33524696    -0.78700
C43         C  0.75257166  0.27564229  0.09647503     0.81200
N44         N  0.71386079  0.24324802  0.06272857    -0.77100
C45         C  0.66994658  0.20203339  0.08153116     0.83700
N46         N  0.66493208  0.19245553  0.13518614    -0.77000
C47         C  0.70355786  0.22553792  0.16949068     0.83800
N48         N  0.74717700  0.26731405  0.14975437    -0.78700
C49         C  0.76160213  0.50688969  0.09607054     0.81200
N50         N  0.72306392  0.50299723  0.06203307    -0.77100
C51         C  0.68000395  0.50352242  0.08045570     0.83700
N52         N  0.67408437  0.50550513  0.13383901    -0.77000
C53         C  0.71238828  0.50881662  0.16818117     0.83800
N54         N  0.75615925  0.51000179  0.14898185    -0.78700
C55         C  0.73192622  0.48324497  0.30768887     0.81200
N56         N  0.74126428  0.49858750  0.25627662    -0.77100
C57         C  0.70365648  0.50125583  0.22556590     0.83700
N58         N  0.65650501  0.48929788  0.24704101    -0.77000
C59         C  0.64754993  0.47374681  0.29902931     0.83800
N60         N  0.68501419  0.47028051  0.32851652    -0.78700
C61         C  0.43845570  0.19516312  0.29982756     0.81200
N62         N  0.44857985  0.24035357  0.32350070    -0.77100
C63         C  0.43997748  0.27660736  0.29795443     0.83700
N64         N  0.42256295  0.26821206  0.24590181    -0.77000
C65         C  0.41383142  0.22299077  0.22060692     0.83800
N66         N  0.42139307  0.18645100  0.24821648    -0.78700
C67         C  0.37903218  0.16112394  0.08540755     0.81200
N68         N  0.36847382  0.19558264  0.05843486    -0.77100
C69         C  0.37419007  0.23962305  0.08204673     0.83700
N70         N  0.38926505  0.24875213  0.13443123    -0.77000
C71         C  0.39826582  0.21366257  0.16301049     0.83800
N72         N  0.39416033  0.17031058  0.13788912    -0.78700
O73         O  0.42592113  0.57691800  0.45189858    -0.79100
O74         O  0.45616154  0.38623553  0.41612342    -0.79200
O75         O  0.52802203  0.52445292  0.36771390    -0.79200
O76         O  0.31726620  0.39217520  0.40882081    -0.79100
O77         O  0.54943826  0.47303523  0.41526925    -0.79200
O78         O  0.35495762  0.47925817  0.41151658    -0.79100
O79         O  0.41275109  0.41757448  0.36963345    -0.79100
O80         O  0.46734487  0.56809824  0.38625201    -0.79200
C81         C  0.44631365  0.59197498  0.40699055     1.10600
C82         C  0.43375099  0.38847782  0.37253995     1.10400
C83         C  0.54974965  0.49630572  0.37165723     1.10600
C84         C  0.31836959  0.43427304  0.39341992     1.10500
O85         O  0.35075094  0.50775269  0.51344859    -0.79100
O86         O  0.54011921  0.49324654  0.52657506    -0.79200
O87         O  0.51368728  0.59816561  0.49452763    -0.79100
O88         O  0.37892450  0.36363805  0.47195887    -0.79100
O89         O  0.44336522  0.40640499  0.52860074    -0.79200
O90         O  0.45165176  0.53649273  0.54362199    -0.79100
O91         O  0.34874542  0.43099803  0.50821935    -0.79100
O92         O  0.57990064  0.55772845  0.46980172    -0.79200
Co93       Co  0.40617512  0.50498329  0.47976736     1.51500
Co94       Co  0.49474686  0.44228159  0.47219288     1.51700
Co95       Co  0.51820724  0.55780264  0.43044094     1.51600
Co96       Co  0.38612887  0.43008316  0.43710657     1.51500
O97         O  0.45998202  0.48646161  0.45476761    -1.41100
C98         C  0.31099027  0.41235064  0.99707170     1.10500
C99         C  0.55766858  0.49102706  0.00969022     1.10600
C100        C  0.48328831  0.58734958  0.99908886     1.10500
C101        C  0.40236148  0.36896685  0.01523459     1.10500
O102        O  0.06812906  0.58035015  0.49715215    -0.79100
O103        O  0.87656599  0.39930523  0.52224847    -0.79200
O104        O  0.89488145  0.55706607  0.46477921    -0.79200
O105        O  0.99619669  0.41792206  0.47399513    -0.79100
O106        O  0.87908181  0.49586542  0.52372451    -0.79200
O107        O  0.00040505  0.47952410  0.52791675    -0.79100
O108        O  0.89069089  0.35551072  0.46033073    -0.79100
O109        O  0.99452821  0.58514711  0.49866659    -0.79200
C110        C  0.04998228  0.57464087  0.02801501     1.10600
C111        C  0.86784888  0.34564723  0.00587796     1.10400
C112        C  0.84854124  0.48026815  0.00412748     1.10600
C113        C  0.03141355  0.44864082  0.02395961     1.10500
O114        O  0.05621283  0.50559665  0.43336412    -0.79100
O115        O  0.83788924  0.47576277  0.41550345    -0.79200
O116        O  0.97950844  0.61653081  0.39963774    -0.79100
O117        O  0.89462569  0.40421145  0.35819917    -0.79100
O118        O  0.83065907  0.38187699  0.41546179    -0.79200
O119        O  0.02826613  0.57733254  0.39914103    -0.79100
O120        O  0.00328114  0.46263374  0.36770144    -0.79100
O121        O  0.90638142  0.51916305  0.36383420    -0.79200
Co122      Co  0.00805498  0.52604576  0.46635854     1.51500
Co123      Co  0.86097953  0.44053817  0.46963831     1.51700
Co124      Co  0.95113785  0.54772302  0.42849561     1.51600
Co125      Co  0.94598725  0.41441183  0.41558074     1.51500
O126        O  0.93571951  0.47384920  0.44440611    -1.41100
C127        C  0.04922592  0.48631306  0.38758352     1.10500
C128        C  0.85726514  0.49651716  0.37082702     1.10600
C129        C  0.01947395  0.61499728  0.38307190     1.10500
C130        C  0.84657216  0.37847849  0.36950311     1.10500
O131        O  0.44006242  0.85786342  0.44392569    -0.79100
O132        O  0.45270466  0.05657248  0.50661782    -0.79200
O133        O  0.53821487  0.01964484  0.51477119    -0.79200
O134        O  0.38444141  0.94226633  0.52186967    -0.79100
O135        O  0.54449752  0.08465576  0.46568910    -0.79200
O136        O  0.35881443  0.87039423  0.47425795    -0.79100
O137        O  0.36951142  0.02086656  0.49505226    -0.79100
O138        O  0.49229917  0.91409116  0.50422856    -0.79200
C139        C  0.46341459  0.88003561  0.01475815     1.10600
C140        C  0.41914663  0.06932684  0.01514230     1.10400
C141        C  0.56291237  0.07988430  0.01216228     1.10600
C142        C  0.33423259  0.90009476  0.01630867     1.10500
O143        O  0.36057727  0.91900412  0.36874494    -0.79100
O144        O  0.49831213  0.03805066  0.36177613    -0.79200
O145        O  0.51883060  0.92428541  0.39310108    -0.79100
O146        O  0.39614014  0.03155263  0.39292770    -0.79100
O147        O  0.47207383  0.10399783  0.40950569    -0.79200
O148        O  0.45038596  0.91549410  0.34638692    -0.79100
O149        O  0.31785723  0.92549730  0.43339876    -0.79100
O150        O  0.56335763  0.03174047  0.40046246    -0.79200
Co151      Co  0.40550085  0.89606866  0.40942343     1.51500
Co152      Co  0.47189000  0.04239446  0.43231766     1.51700
Co153      Co  0.52402570  0.97266552  0.45339635     1.51600
Co154      Co  0.38806836  0.97810198  0.45395514     1.51500
O155        O  0.45224887  0.96821713  0.44369957    -1.41100
C156        C  0.31689678  0.90712739  0.38909683     1.10500
C157        C  0.54536792  0.04748137  0.36163233     1.10600
C158        C  0.49003598  0.90913148  0.35097221     1.10500
C159        C  0.42844700  0.08095604  0.38418845     1.10500
C160        C  0.36853869  0.27845551  0.04786367    -0.15400
C161        C  0.39317862  0.33017507  0.05827345    -0.30600
H162        H  0.35043908  0.26495371  0.00886094     0.13600
H163        H  0.41400484  0.34438835  0.09598032     0.14200
C164        C  0.37571864  0.11587349  0.05519775    -0.15400
C165        C  0.41388153  0.10239645  0.05698772    -0.30600
H166        H  0.34616531  0.09981485  0.02350154     0.13600
H167        H  0.44638377  0.12227061  0.08517877     0.14200
C168        C  0.45290410  0.32440480  0.32937429    -0.15400
C169        C  0.42768928  0.35274607  0.32737239    -0.30600
H170        H  0.48035511  0.33162116  0.36241559     0.13600
H171        H  0.39918514  0.34614588  0.29566137     0.14200
C172        C  0.45149184  0.15954140  0.33018127    -0.15400
C173        C  0.41581060  0.11018911  0.34299708    -0.30600
H174        H  0.48968304  0.17772428  0.35006905     0.13600
H175        H  0.37672113  0.09236635  0.32517340     0.14200
C176        C  0.58060643  0.49527570  0.32650575    -0.15400
C177        C  0.59909096  0.46149534  0.32619824    -0.30600
H178        H  0.59394437  0.52686938  0.29720948     0.13600
H179        H  0.58667515  0.43126366  0.35694802     0.14200
C180        C  0.77079307  0.47925096  0.34190292    -0.15400
C181        C  0.82137644  0.49779870  0.32948044    -0.30600
H182        H  0.75682847  0.46207566  0.38080228     0.13600
H183        H  0.83628794  0.51607758  0.29124531     0.14200
C184        C  0.60102958  0.50848938  0.04902740    -0.15400
C185        C  0.63727017  0.49343523  0.04239593    -0.30600
H186        H  0.60377985  0.53345675  0.08204129     0.13600
H187        H  0.63581284  0.47236022  0.00636927     0.14200
C188        C  0.80725306  0.50389568  0.07622675    -0.15400
C189        C  0.80392469  0.48056173  0.02962476    -0.30600
H190        H  0.84318673  0.52008241  0.10014394     0.13600
H191        H  0.82788519  0.57638016  0.51621694     0.14200
C192        C  0.62985439  0.16777733  0.04233008    -0.15400
C193        C  0.59790409  0.11727258  0.05263451    -0.30600
H194        H  0.63036204  0.18304129  0.00243316     0.13600
H195        H  0.60005193  0.10149446  0.09158333     0.14200
C196        C  0.82856078  0.30614161  0.04082008    -0.15400
C197        C  0.80067839  0.31796513  0.07426367    -0.30600
H198        H  0.81965931  0.26575595  0.03625382     0.13600
H199        H  0.81052771  0.35825144  0.08152220     0.14200
C200        C  0.63215336  0.11453773  0.33232293    -0.15400
C201        C  0.58090467  0.08400811  0.32073373    -0.30600
H202        H  0.64760917  0.10839343  0.36997488     0.13600
H203        H  0.56377586  0.09276161  0.28581322     0.14200
C204        C  0.76806000  0.29569129  0.34850294    -0.15400
C205        C  0.80971719  0.33963831  0.33101597    -0.30600
H206        H  0.76087569  0.28993887  0.39084371     0.13600
H207        H  0.81955550  0.34438258  0.28927917     0.14200
C208        C  0.27944259  0.43101028  0.35239003    -0.15400
C209        C  0.25829690  0.46291423  0.35185282    -0.30600
H210        H  0.26424341  0.39834935  0.32469335     0.13600
H211        H  0.26947419  0.49215937  0.38298425     0.14200
C212        C  0.09464744  0.48791556  0.36179907    -0.15400
C213        C  0.09046178  0.46114180  0.31755207    -0.30600
H214        H  0.13213557  0.50819757  0.38276357     0.13600
H215        H  0.05347878  0.44162985  0.29563848     0.14200
C216        C  0.26169662  0.39625506  0.02567441    -0.15400
C217        C  0.26166723  0.41354123  0.07502479    -0.30600
H218        H  0.22481388  0.37476648  0.00343227     0.13600
H219        H  0.29820348  0.43268865  0.09823343     0.14200
C220        C  0.10399860  0.43160331  0.04872020    -0.15400
C221        C  0.06232023  0.43634098  0.06393225    -0.30600
H222        H  0.11364456  0.43569450  0.00654329     0.13600
H223        H  0.04998138  0.42946856  0.10529506     0.14200
C224        C  0.13571692  0.64466445  0.05805086    -0.15400
C225        C  0.08588642  0.61050832  0.06918208    -0.30600
H226        H  0.15139965  0.64230875  0.01984124     0.13600
H227        H  0.06923331  0.61381328  0.10639317     0.14200
C228        C  0.29402427  0.86682020  0.05523719    -0.15400
C229        C  0.28628896  0.81822291  0.06578664    -0.30600
H230        H  0.26640789  0.87864938  0.06897645     0.13600
H231        H  0.31087147  0.80497544  0.04701219     0.14200
C232        C  0.10676904  0.67501197  0.34481367    -0.15400
C233        C  0.05425353  0.65495740  0.34375794    -0.30600
H234        H  0.12475496  0.66255281  0.37629466     0.13600
H235        H  0.03675000  0.67140999  0.31598281     0.14200
C236        C  0.26441269  0.84694823  0.31973976    -0.15400
C237        C  0.26673514  0.86753827  0.36695089    -0.30600
H238        H  0.29879991  0.86385885  0.29471011     0.13600
H239        H  0.23204180  0.85243279  0.39139127     0.14200
C240        C  0.46966936  0.65316504  0.33233175    -0.15400
C241        C  0.44932689  0.63892672  0.38099697    -0.30600
H242        H  0.48045248  0.62796019  0.31060607     0.13600
H243        H  0.43590981  0.66235548  0.40205971     0.14200
C244        C  0.49548427  0.87400960  0.31266052    -0.15400
C245        C  0.50372526  0.83518418  0.33142107    -0.30600
H246        H  0.48161017  0.87260099  0.27153871     0.13600
H247        H  0.51292664  0.83478343  0.37393294     0.14200
C248        C  0.46854906  0.63549330  0.06965986    -0.15400
C249        C  0.49279222  0.63615290  0.02480069    -0.30600
H250        H  0.44704889  0.59936848  0.09200560     0.13600
H251        H  0.51663039  0.67293578  0.00427139     0.14200
C252        C  0.45584530  0.79469585  0.03842200    -0.15400
C253        C  0.46406411  0.84190094  0.05309358    -0.30600
H254        H  0.44641462  0.78274683  0.99674149     0.13600
H255        H  0.47679756  0.85524527  0.09395573     0.14200
C256        C  0.49925019  0.71130068  0.59489683     0.81200
N257        N  0.49682287  0.75073017  0.56775451    -0.77100
C258        C  0.49270687  0.78887979  0.59395568     0.83700
N259        N  0.49163673  0.78823181  0.64770061    -0.77000
C260        C  0.49304386  0.74901119  0.67575286     0.83800
N261        N  0.49657879  0.70995630  0.64935547    -0.78700
C262        C  0.47314044  0.70328782  0.81556492     0.81200
N263        N  0.47883453  0.70491317  0.76205564    -0.77100
C264        C  0.48873496  0.74882144  0.73422107     0.83700
N265        N  0.49276133  0.79170021  0.76041549    -0.77000
C266        C  0.48794781  0.79051699  0.81451417     0.83800
N267        N  0.47825501  0.74611832  0.84144558    -0.78700
C268        C  0.21466761  0.76519461  0.80560636     0.81200
N269        N  0.22248551  0.77243926  0.75222581    -0.80400
C270        C  0.18431543  0.74031443  0.71733467     0.83700
N271        N  0.13845414  0.70056940  0.73627051    -0.77000
C272        C  0.13028473  0.69378963  0.78964671     0.83800
N273        N  0.16884223  0.72594012  0.82392361    -0.78700
C274        C  0.24930658  0.77888405  0.58566156     0.81200
N275        N  0.20831992  0.74869343  0.55313895    -0.77100
C276        C  0.15992050  0.71834253  0.57251027     0.83700
N277        N  0.15244457  0.71644254  0.62574351    -0.77000
C278        C  0.19317891  0.74626170  0.65940272     0.83800
N279        N  0.24201785  0.77804918  0.63929103    -0.78700
C280        C  0.11121822  0.40577660  0.57270885     0.81200
N281        N  0.11371487  0.41105316  0.62637215    -0.77100
C282        C  0.15548589  0.41450784  0.65499591     0.83700
N283        N  0.19578564  0.41397216  0.62947017    -0.77000
C284        C  0.19337290  0.40835129  0.57551925     0.83800
N285        N  0.15093191  0.40392787  0.54753098    -0.78700
C286        C  0.11071490  0.42118452  0.78844027     0.81200
N287        N  0.15300138  0.43099637  0.81977254    -0.77100
C288        C  0.19726328  0.43560197  0.79809851     0.83700
N289        N  0.19884125  0.42969895  0.74435603    -0.77000
C290        C  0.15616254  0.41999289  0.71302913     0.83800
N291        N  0.11286582  0.41667290  0.73534889    -0.78700
C292        C  0.73636026  0.23884113  0.80873730     0.81200
N293        N  0.73787049  0.24243942  0.75482016    -0.77100
C294        C  0.70342159  0.20142187  0.72390463     0.83700
N295        N  0.66720969  0.15591261  0.74773446    -0.77000
C296        C  0.66656592  0.15208101  0.80221406     0.83800
N297        N  0.70074605  0.19373599  0.83187885    -0.78700
C298        C  0.75941813  0.25761528  0.59274784     0.81200
N299        N  0.72124152  0.22501730  0.55814201    -0.77100
C300        C  0.67628291  0.18380971  0.57643548     0.83700
N301        N  0.66992372  0.17481330  0.63024989    -0.77000
C302        C  0.70810628  0.20781874  0.66512388     0.83800
N303        N  0.75199289  0.24936200  0.64581299    -0.78700
C304        C  0.76998646  0.53099481  0.60478217     0.81200
N305        N  0.72743000  0.52788334  0.57722529    -0.77100
C306        C  0.68767563  0.52895499  0.60423157     0.83700
N307        N  0.69079335  0.53291704  0.65818562    -0.77000
C308        C  0.73319589  0.53688182  0.68554849     0.83800
N309        N  0.77208979  0.53491456  0.65876850    -0.78700
C310        C  0.78454615  0.55408655  0.82438121     0.81200
N311        N  0.77952228  0.54647616  0.77085263    -0.77100
C312        C  0.73692484  0.54292799  0.74389467     0.83700
N313        N  0.69846666  0.54584213  0.77100794    -0.77000
C314        C  0.70324591  0.55365769  0.82467562     0.83800
N315        N  0.74665408  0.55833802  0.85093744    -0.78700
C316        C  0.45214116  0.20242404  0.78297576     0.81200
N317        N  0.45733142  0.24737841  0.80319648    -0.77100
C318        C  0.44220885  0.27755316  0.77451566     0.83700
N319        N  0.42264764  0.26316735  0.72457188    -0.77000
C320        C  0.41783114  0.21866567  0.70311472     0.83800
N321        N  0.43178558  0.18742620  0.73266303    -0.78700
C322        C  0.37040533  0.14906182  0.57466461     0.81200
N323        N  0.36094421  0.18363006  0.54593547    -0.77100
C324        C  0.37003498  0.22957067  0.56798546     0.83700
N325        N  0.38819203  0.24017134  0.61922739    -0.77000
C326        C  0.39707630  0.20545901  0.64833619     0.83800
N327        N  0.38883758  0.16023907  0.62567304    -0.78700
O328        O  0.42385919  0.56369743  0.90466522    -0.79100
O329        O  0.46353216  0.38106613  0.92745947    -0.79200
O330        O  0.57150577  0.56493039  0.89846963    -0.79200
O331        O  0.35455812  0.43236747  0.84997580    -0.79100
O332        O  0.53003669  0.47848204  0.89092847    -0.79200
O333        O  0.33044543  0.47517178  0.90453653    -0.79100
O334        O  0.41947830  0.38996180  0.86122225    -0.79100
O335        O  0.47339390  0.54181999  0.85692424    -0.79200
C336        C  0.45055405  0.56897000  0.86321047     1.10600
C337        C  0.44695113  0.37095745  0.88020205     1.10400
C338        C  0.56931103  0.52384546  0.87942979     1.10600
C339        C  0.32703051  0.45378532  0.85942689     1.10500
O340        O  0.35253471  0.45197785  0.01280258    -0.79100
O341        O  0.53951494  0.44599037  0.98984611    -0.79200
O342        O  0.50739758  0.58938336  0.95725809    -0.79100
O343        O  0.37821078  0.35410218  0.97008477    -0.79100
O344        O  0.43932974  0.41555729  0.02160336    -0.79200
O345        O  0.44597492  0.54383789  0.01360492    -0.79100
O346        O  0.30977476  0.39136217  0.95263316    -0.79100
O347        O  0.53744842  0.52027179  0.99542273    -0.79200
Co348      Co  0.39049197  0.50649409  0.95911628     1.51500
Co349      Co  0.48232317  0.44989588  0.95869805     1.51700
Co350      Co  0.50114974  0.52514299  0.92299721     1.51600
Co351      Co  0.36964530  0.39621501  0.90892562     1.51500
O352        O  0.42695055  0.46711561  0.93558500    -1.41100
C353        C  0.33104912  0.46032287  0.52730417     1.10500
C354        C  0.58156960  0.53251972  0.51087428     1.10600
C355        C  0.48822278  0.58340254  0.53818163     1.10500
C356        C  0.40203575  0.36520452  0.51606862     1.10500
O357        O  0.06703682  0.57086810  0.98268958    -0.79100
O358        O  0.86452173  0.38701591  0.99262604    -0.79200
O359        O  0.89409053  0.50153277  0.02480596    -0.79200
O360        O  0.98247405  0.43134448  0.02967431    -0.79100
O361        O  0.84129847  0.46115246  0.95816974    -0.79200
O362        O  0.05397612  0.47319596  0.98158598    -0.79100
O363        O  0.90417512  0.33857855  0.98789222    -0.79100
O364        O  0.00145832  0.55251467  0.03665540    -0.79200
C365        C  0.04293143  0.60209692  0.51370348     1.10600
C366        C  0.87050241  0.35640093  0.50454433     1.10400
C367        C  0.87344372  0.53425631  0.50795517     1.10600
C368        C  0.00865216  0.44132784  0.51895461     1.10500
O369        O  0.01137639  0.45837201  0.87234283    -0.79100
O370        O  0.89860661  0.48438675  0.86421080    -0.79200
O371        O  0.01203796  0.60352148  0.93417170    -0.79100
O372        O  0.89589226  0.37601541  0.89096394    -0.79100
O373        O  0.82465609  0.38427339  0.89329007    -0.79200
O374        O  0.02393207  0.55703809  0.87368396    -0.79100
O375        O  0.99157027  0.39496457  0.92902279    -0.79100
O376        O  0.90592199  0.54721329  0.91817576    -0.79200
Co377      Co  0.03461937  0.51312943  0.92728990     1.51500
Co378      Co  0.88690388  0.43685361  0.92566112     1.51700
Co379      Co  0.95351221  0.54686139  0.97787731     1.51600
Co380      Co  0.93834443  0.40871658  0.96330527     1.51500
O381        O  0.95983209  0.48484834  0.95008032    -1.41100
C382        C  0.01317998  0.41766587  0.88636751     1.10500
C383        C  0.89200774  0.52351696  0.87335764     1.10600
C384        C  0.02991647  0.60042177  0.88932783     1.10500
C385        C  0.84794388  0.36109786  0.87541864     1.10500
O386        O  0.43567392  0.86628768  0.97205111    -0.79100
O387        O  0.46326906  0.07464057  0.00608743    -0.79200
O388        O  0.54446123  0.03210619  0.02276099    -0.79200
O389        O  0.32903573  0.93310040  0.98793452    -0.79100
O390        O  0.55054362  0.09381767  0.96818089    -0.79200
O391        O  0.37197215  0.89266806  0.00798310    -0.79100
O392        O  0.38122772  0.03779966  0.98628282    -0.79100
O393        O  0.49208162  0.92785035  0.02492724    -0.79200
C394        C  0.46616315  0.86769055  0.48726750     1.10600
C395        C  0.40935399  0.05403566  0.51835319     1.10400
C396        C  0.55722976  0.06820998  0.50767574     1.10600
C397        C  0.36120472  0.89275733  0.51874175     1.10500
O398        O  0.34861366  0.85138049  0.90895517    -0.79100
O399        O  0.49809669  0.03501836  0.86865822    -0.79200
O400        O  0.50977357  0.92327768  0.91222513    -0.79100
O401        O  0.41067009  0.03972685  0.87398607    -0.79100
O402        O  0.48089315  0.11245805  0.90292707    -0.79200
O403        O  0.44307287  0.92110514  0.86988504    -0.79100
O404        O  0.35424078  0.92569860  0.87651816    -0.79100
O405        O  0.56307213  0.03174915  0.90900780    -0.79200
Co406      Co  0.40639455  0.91058880  0.93902371     1.51500
Co407      Co  0.47692589  0.05215672  0.93704403     1.51700
Co408      Co  0.52229907  0.97913403  0.96689782     1.51600
Co409      Co  0.37888004  0.98384657  0.93451772     1.51500
O410        O  0.45164460  0.98154709  0.96283556    -1.41100
C411        C  0.33365161  0.87502515  0.87584690     1.10500
C412        C  0.54474875  0.04404412  0.86815225     1.10600
C413        C  0.47915442  0.90912039  0.87174775     1.10500
C414        C  0.44298498  0.08955122  0.86960531     1.10500
C415        C  0.36758288  0.27048485  0.53389268    -0.15400
C416        C  0.38535551  0.31955118  0.55194017    -0.30600
H417        H  0.35800490  0.26224595  0.49188999     0.13600
H418        H  0.39771381  0.32824215  0.59335517     0.14200
C419        C  0.36743637  0.10342497  0.54799963    -0.15400
C420        C  0.40520578  0.08985723  0.55584650    -0.30600
H421        H  0.33893895  0.08623052  0.51539012     0.13600
H422        H  0.43682299  0.11059402  0.58465241     0.14200
C423        C  0.44090671  0.32202124  0.79940551    -0.15400
C424        C  0.45797338  0.33530330  0.84981097    -0.30600
H425        H  0.42193671  0.34069757  0.77813158     0.13600
H426        H  0.47746861  0.31701618  0.87083775     0.14200
C427        C  0.46648902  0.17048614  0.81847308    -0.15400
C428        C  0.43632113  0.11849981  0.82371476    -0.30600
H429        H  0.49768982  0.19163107  0.84777118     0.13600
H430        H  0.40300681  0.09747820  0.79660315     0.14200
C431        C  0.61023427  0.52687988  0.84335260    -0.15400
C432        C  0.66172657  0.55650195  0.85526346    -0.30600
H433        H  0.59807431  0.49949748  0.81042324     0.13600
H434        H  0.67341736  0.57930445  0.89171296     0.14200
C435        C  0.82883246  0.55465431  0.85492249    -0.15400
C436        C  0.85913155  0.53549131  0.83603264    -0.30600
H437        H  0.83250803  0.56560879  0.89662562     0.13600
H438        H  0.85321772  0.52083169  0.79553243     0.14200
C439        C  0.63326464  0.54593764  0.53652454    -0.15400
C440        C  0.63735220  0.51798677  0.57776307    -0.30600
H441        H  0.66856247  0.57791325  0.52006528     0.13600
H442        H  0.60187881  0.48772846  0.59576347     0.14200
C443        C  0.81040157  0.52223708  0.57883655    -0.15400
C444        C  0.83618157  0.54756257  0.53459337    -0.30600
H445        H  0.82076455  0.49538995  0.59857643     0.13600
H446        H  0.76700214  0.46283011  0.00723602     0.14200
C447        C  0.63489102  0.15077918  0.53680039    -0.15400
C448        C  0.59417659  0.10385797  0.54877597    -0.30600
H449        H  0.63990153  0.16422282  0.49567359     0.13600
H450        H  0.59095507  0.08861566  0.58904984     0.14200
C451        C  0.83117807  0.30631695  0.52882919    -0.15400
C452        C  0.80650277  0.30501286  0.57389964    -0.30600
H453        H  0.81842255  0.27037140  0.50639508     0.13600
H454        H  0.82073540  0.34033213  0.59773644     0.14200
C455        C  0.63155188  0.10360748  0.83175978    -0.15400
C456        C  0.57923379  0.07663751  0.82429847    -0.30600
H457        H  0.64819340  0.09693969  0.86833104     0.13600
H458        H  0.56144890  0.08601237  0.79034735     0.14200
C459        C  0.76836505  0.28464462  0.84297998    -0.15400
C460        C  0.81999962  0.31763466  0.83702012    -0.30600
H461        H  0.74887983  0.28936370  0.87715963     0.13600
H462        H  0.84170091  0.31065517  0.80662005     0.14200
C463        C  0.28659530  0.44825798  0.81935688    -0.15400
C464        C  0.24272555  0.44839197  0.83417540    -0.30600
H465        H  0.29018862  0.43838493  0.77883849     0.13600
H466        H  0.23854790  0.45559249  0.87552249     0.14200
C467        C  0.04758999  0.40280026  0.85881386    -0.15400
C468        C  0.06523219  0.42194961  0.81044542    -0.30600
H469        H  0.06310462  0.38058098  0.88075430     0.13600
H470        H  0.04752712  0.44143053  0.78720861     0.14200
C471        C  0.28775772  0.43944860  0.56490195    -0.15400
C472        C  0.23835237  0.41282793  0.54574453    -0.30600
H473        H  0.29546804  0.45584574  0.60465528     0.13600
H474        H  0.23175792  0.40152849  0.50410505     0.14200
C475        C  0.06848150  0.40661082  0.54067524    -0.15400
C476        C  0.04033819  0.42899542  0.55755809    -0.30600
H477        H  0.06476768  0.39434781  0.49941084     0.13600
H478        H  0.04658695  0.44490656  0.59755151     0.14200
C479        C  0.11925505  0.68247608  0.53550077    -0.15400
C480        C  0.07060994  0.64688011  0.54939234    -0.30600
H481        H  0.13223029  0.68109888  0.49550334     0.13600
H482        H  0.05469845  0.64739598  0.58790642     0.14200
C483        C  0.32939514  0.86128061  0.56426087    -0.15400
C484        C  0.30060137  0.80904295  0.56022950    -0.30600
H485        H  0.32201301  0.88147521  0.59618336     0.13600
H486        H  0.30698039  0.78989988  0.52656854     0.14200
C487        C  0.08276236  0.64817856  0.81080249    -0.15400
C488        C  0.06521813  0.64887530  0.85995081    -0.30600
H489        H  0.06481643  0.61238118  0.78766167     0.13600
H490        H  0.08169763  0.68549817  0.88164925     0.14200
C491        C  0.25625268  0.79664792  0.84446433    -0.15400
C492        C  0.29504056  0.84497249  0.83392913    -0.30600
H493        H  0.25334468  0.78030084  0.88429309     0.13600
H494        H  0.29604665  0.86374853  0.79591409     0.14200
C495        C  0.46000429  0.65537427  0.84627354    -0.15400
C496        C  0.46091129  0.61297535  0.82686093    -0.30600
H497        H  0.45066250  0.65597182  0.88800125     0.13600
H498        H  0.47343294  0.61277165  0.78635384     0.14200
C499        C  0.48040762  0.87219035  0.83159577    -0.15400
C500        C  0.49548900  0.83665348  0.84644188    -0.30600
H501        H  0.46221649  0.86912412  0.79256082     0.13600
H502        H  0.50864947  0.83747372  0.88752104     0.14200
C503        C  0.50495404  0.67172299  0.56280411    -0.15400
C504        C  0.49419197  0.62314972  0.57871288    -0.30600
H505        H  0.51373380  0.68188246  0.52091029     0.13600
H506        H  0.48113207  0.61028541  0.61917324     0.14200
C507        C  0.48929432  0.83118300  0.56514947    -0.15400
C508        C  0.46863937  0.82466277  0.51580174    -0.30600
H509        H  0.50173048  0.86773417  0.58611702     0.13600
H510        H  0.45314565  0.78704531  0.49602802     0.14200
loop_ 
_geom_bond_atom_site_label_1 
_geom_bond_atom_site_label_2 
_geom_bond_distance 
_geom_bond_site_symmetry_2 
_ccdc_geom_bond_type 
C1            N2   1.355       .  A
C1            N6   1.348       .  A
C1          C248   1.465       .  S
N2            C3   1.358       .  A
C3            N4   1.367       .  A
C3          C252   1.473       .  S
N4            C5   1.359       .  A
C5            N6   1.356       .  A
C5            C9   1.469       .  S
C7            N8   1.345       .  A
C7           N12   1.356       .  A
C7          C240   1.465       .  S
N8            C9   1.352       .  A
C9           N10   1.365       .  A
N10          C11   1.369       .  A
C11          N12   1.363       .  A
C11         C245   1.480       .  S
C13          N14   1.338       .  A
C13          N18   1.362       .  A
C13         C236   1.457       .  S
N14          C15   1.344       .  A
C15          N16   1.369       .  A
C15          C23   1.471       .  S
N16          C17   1.372       .  A
C17          N18   1.365       .  A
C17         C232   1.490       .  S
C19          N20   1.350       .  A
C19          N24   1.353       .  A
C19         C229   1.471       .  S
N20          C21   1.354       .  A
C21          N22   1.365       .  A
C21         C224   1.469       .  S
N22          C23   1.360       .  A
C23          N24   1.366       .  A
C25          N26   1.357       .  A
C25          N30   1.361       .  A
C25         C220   1.483       .  S
N26          C27   1.362       .  A
C27          N28   1.358       .  A
C27          C35   1.469       .  S
N28          C29   1.358       .  A
C29          N30   1.362       .  A
C29         C217   1.477       .  S
C31          N32   1.361       .  A
C31          N36   1.350       .  A
C31         C213   1.473       .  S
N32          C33   1.359       .  A
C33          N34   1.365       .  A
C33         C209   1.485       .  S
N34          C35   1.365       .  A
C35          N36   1.354       .  A
C37          N38   1.354       .  A
C37          N42   1.351       .  A
C37         C204   1.472       .  S
N38          C39   1.360       .  A
C39          N40   1.369       .  A
C39          C47   1.477       .  S
N40          C41   1.367       .  A
C41          N42   1.355       .  A
C41         C200   1.478       .  S
C43          N44   1.351       .  A
C43          N48   1.354       .  A
C43         C197   1.462       .  S
N44          C45   1.350       .  A
C45          N46   1.367       .  A
C45         C192   1.473       .  S
N46          C47   1.364       .  A
C47          N48   1.362       .  A
C49          N50   1.355       .  A
C49          N54   1.350       .  A
C49         C188   1.474       .  S
N50          C51   1.356       .  A
C51          N52   1.360       .  A
C51         C185   1.465       .  S
N52          C53   1.360       .  A
C53          N54   1.360       .  A
C53          C57   1.463       .  S
C55          N56   1.349       .  A
C55          N60   1.346       .  A
C55         C180   1.454       .  S
N56          C57   1.357       .  A
C57          N58   1.366       .  A
N58          C59   1.363       .  A
C59          N60   1.348       .  A
C59         C177   1.462       .  S
C61          N62   1.347       .  A
C61          N66   1.358       .  A
C61         C172   1.467       .  S
N62          C63   1.350       .  A
C63          N64   1.371       .  A
C63         C168   1.489       .  S
N64          C65   1.378       .  A
C65          N66   1.366       .  A
C65          C71   1.492       .  S
C67          N68   1.355       .  A
C67          N72   1.366       .  A
C67         C164   1.493       .  S
N68          C69   1.356       .  A
C69          N70   1.364       .  A
C69         C160   1.481       .  S
N70          C71   1.365       .  A
C71          N72   1.373       .  A
O73          C81   1.257       .  A
O73         Co93   2.007       .  S
O74          C82   1.277       .  A
O74         Co94   2.030       .  S
O75          C83   1.260       .  A
O75         Co95   1.960       .  S
O76          C84   1.268       .  A
O76         Co96   1.885       .  S
O77          C83   1.277       .  A
O77         Co94   2.017       .  S
O78          C84   1.304       .  A
O78         Co93   2.133       .  S
O79          C82   1.266       .  A
O79         Co96   1.990       .  S
O80          C81   1.255       .  A
O80         Co95   1.965       .  S
C81         C241   1.473       .  S
C82         C169   1.499       .  S
C83         C176   1.473       .  S
C84         C208   1.483       .  S
O85         C353   1.261       .  A
O85         Co93   1.878       .  S
O86         C354   1.262       .  A
O86         Co94   1.970       .  S
O87         C355   1.285       .  A
O87         Co95   2.051       .  S
O88         C356   1.271       .  A
O88         Co96   2.033       .  S
O89         C356   1.257       .  A
O89         Co94   1.969       .  S
O90         C355   1.270       .  A
O90         Co93   1.981       .  S
O91         C353   1.297       .  A
O91         Co96   2.120       .  S
O92         C354   1.271       .  A
O92         Co95   2.032       .  S
Co93         O97   2.007       .  S
Co94         O97   2.028       .  S
Co95         O97   2.041       .  S
Co96         O97   2.018       .  S
C98         C216   1.478   1_556  S
C98         O340   1.260   1_556  A
C98         O346   1.271       .  A
C99         C184   1.470       .  S
C99         O341   1.259   1_554  A
C99         O347   1.294   1_554  A
C100        C249   1.468   1_556  S
C100        O342   1.262       .  A
C100        O345   1.261   1_556  A
C101        C161   1.484       .  S
C101        O343   1.283   1_554  A
C101        O344   1.268       .  A
O102        C365   1.261       .  A
O102       Co122   1.857       .  S
O103        C366   1.262       .  A
O103       Co123   1.963       .  S
O104        C367   1.270       .  A
O104       Co124   2.027       .  S
O105        C368   1.278   1_655  A
O105       Co125   2.014       .  S
O106        C367   1.266       .  A
O106       Co123   1.982       .  S
O107        C368   1.274       .  A
O107       Co122   1.984       .  S
O108        C366   1.275       .  A
O108       Co125   2.037       .  S
O109        C365   1.296   1_655  A
O109       Co124   2.121       .  S
C110        C225   1.474       .  S
C110        O357   1.279   1_554  A
C110        O364   1.260       .  A
C111        C196   1.464       .  S
C111        O358   1.295   1_554  A
C111        O363   1.268   1_554  A
C112        C189   1.467       .  S
C112        O359   1.262       .  A
C112        O361   1.256   1_554  A
C113        C221   1.486       .  S
C113        O360   1.272   1_455  A
C113        O362   1.276   1_554  A
O114        C127   1.254       .  A
O114       Co122   1.975       .  S
O115        C128   1.273       .  A
O115       Co123   1.985       .  S
O116        C129   1.268   1_655  A
O116       Co124   1.900       .  S
O117        C130   1.264       .  A
O117       Co125   1.969       .  S
O118        C130   1.276       .  A
O118       Co123   2.024       .  S
O119        C129   1.301       .  A
O119       Co122   2.132       .  S
O120        C127   1.264       .  A
O120       Co125   1.994   1_455  S
O121        C128   1.268       .  A
O121       Co124   1.977       .  S
Co122       O126   1.979   1_455  S
Co123       O126   2.021       .  S
Co124       O126   2.013       .  S
Co125       O126   2.043       .  S
C127        C212   1.468       .  S
C128        C181   1.469       .  S
C129        C233   1.492       .  S
C130        C205   1.473       .  S
O131        C394   1.265       .  A
O131       Co151   2.008       .  S
O132        C395   1.271       .  A
O132       Co152   2.063       .  S
O133        C396   1.257       .  A
O133       Co153   1.975   1_545  S
O134        C397   1.266       .  A
O134       Co154   1.964       .  S
O135        C396   1.272       .  A
O135       Co152   2.027       .  S
O136        C397   1.284       .  A
O136       Co151   2.034       .  S
O137        C395   1.232       .  A
O137       Co154   1.907   1_545  S
O138        C394   1.262       .  A
O138       Co153   1.964       .  S
C139        C253   1.467       .  S
C139        O386   1.272   1_554  A
C139        O393   1.256       .  A
C140        C165   1.496       .  S
C140        O387   1.245       .  A
C140        O392   1.259   1_554  A
C141        C193   1.470       .  S
C141        O388   1.253       .  A
C141        O390   1.274   1_554  A
C142        C228   1.480       .  S
C142        O389   1.255   1_554  A
C142        O391   1.243       .  A
O143        C156   1.265       .  A
O143       Co151   1.993       .  S
O144        C157   1.262       .  A
O144       Co152   1.977       .  S
O145        C158   1.276       .  A
O145       Co153   2.037       .  S
O146        C159   1.302       .  A
O146       Co154   2.103   1_545  S
O147        C159   1.271       .  A
O147       Co152   1.876       .  S
O148        C158   1.259       .  A
O148       Co151   1.972       .  S
O149        C156   1.235       .  A
O149       Co154   1.931       .  S
O150        C157   1.277       .  A
O150       Co153   2.033   1_545  S
Co151       O155   2.058       .  S
Co152       O155   1.970   1_545  S
Co153       O155   2.042       .  S
Co154       O155   2.050       .  S
C156        C237   1.456       .  S
C157        C201   1.486       .  S
C158        C244   1.481       .  S
C159        C173   1.481       .  S
C160        C161   1.346       .  D
C160        H162   1.084       .  S
C161        H163   1.084       .  S
C164        C165   1.348       .  D
C164        H166   1.086       .  S
C165        H167   1.086       .  S
C168        C169   1.347       .  D
C168        H170   1.087       .  S
C169        H171   1.085       .  S
C172        C173   1.344       .  D
C172        H174   1.085       .  S
C173        H175   1.084       .  S
C176        C177   1.334       .  D
C176        H178   1.089       .  S
C177        H179   1.090       .  S
C180        C181   1.344       .  D
C180        H182   1.084       .  S
C181        H183   1.083       .  S
C184        C185   1.342       .  D
C184        H186   1.087       .  S
C185        H187   1.089       .  S
C188        C189   1.339       .  D
C188        H190   1.085       .  S
C189        H446   1.086       .  S
H191        C444   1.077       .  S
C192        C193   1.331       .  D
C192        H194   1.087       .  S
C193        H195   1.087       .  S
C196        C197   1.341       .  D
C196        H198   1.084       .  S
C197        H199   1.083       .  S
C200        C201   1.343       .  D
C200        H202   1.086       .  S
C201        H203   1.086       .  S
C204        C205   1.344       .  D
C204        H206   1.082       .  S
C205        H207   1.081       .  S
C208        C209   1.343       .  D
C208        H210   1.087       .  S
C209        H211   1.087       .  S
C212        C213   1.336       .  D
C212        H214   1.084       .  S
C213        H215   1.083       .  S
C216        C217   1.344       .  D
C216        H218   1.089       .  S
C217        H219   1.089       .  S
C220        C221   1.352       .  D
C220        H222   1.091       .  S
C221        H223   1.090       .  S
C224        C225   1.336       .  D
C224        H226   1.089       .  S
C225        H227   1.089       .  S
C228        C229   1.347       .  D
C228        H230   1.083       .  S
C229        H231   1.085       .  S
C232        C233   1.347       .  D
C232        H234   1.090       .  S
C233        H235   1.090       .  S
C236        C237   1.321       .  D
C236        H238   1.088       .  S
C237        H239   1.087       .  S
C240        C241   1.340       .  D
C240        H242   1.087       .  S
C241        H243   1.087       .  S
C244        C245   1.344       .  D
C244        H246   1.093       .  S
C245        H247   1.095       .  S
C248        C249   1.338       .  D
C248        H250   1.084       .  S
C249        H251   1.084       .  S
C252        C253   1.334       .  D
C252        H254   1.093   1_554  S
C253        H255   1.092       .  S
C256        N257   1.359       .  A
C256        N261   1.369       .  A
C256        C503   1.494       .  S
N257        C258   1.357       .  A
C258        N259   1.349       .  A
C258        C507   1.465       .  S
N259        C260   1.352       .  A
C260        N261   1.374       .  A
C260        C264   1.475       .  S
C262        N263   1.354       .  A
C262        N267   1.358       .  A
C262        C495   1.469       .  S
N263        C264   1.355       .  A
C264        N265   1.375       .  A
N265        C266   1.366       .  A
C266        N267   1.357       .  A
C266        C500   1.496       .  S
C268        N269   1.360       .  A
C268        N273   1.354       .  A
C268        C491   1.466       .  S
N269        C270   1.359       .  A
C270        N271   1.366       .  A
C270        C278   1.475       .  S
N271        C272   1.360       .  A
C272        N273   1.355       .  A
C272        C487   1.481       .  S
C274        N275   1.349       .  A
C274        N279   1.365       .  A
C274        C484   1.472       .  S
N275        C276   1.348       .  A
C276        N277   1.354       .  A
C276        C479   1.460       .  S
N277        C278   1.360       .  A
C278        N279   1.371       .  A
C280        N281   1.353       .  A
C280        N285   1.356       .  A
C280        C475   1.476       .  S
N281        C282   1.360       .  A
C282        N283   1.359       .  A
C282        C290   1.465       .  S
N283        C284   1.362       .  A
C284        N285   1.359       .  A
C284        C472   1.474       .  S
C286        N287   1.355       .  A
C286        N291   1.346       .  A
C286        C468   1.459       .  S
N287        C288   1.357       .  A
C288        N289   1.366       .  A
C288        C464   1.479       .  S
N289        C290   1.365       .  A
C290        N291   1.353       .  A
C292        N293   1.355       .  A
C292        N297   1.351       .  A
C292        C459   1.476       .  S
N293        C294   1.365       .  A
C294        N295   1.371       .  A
C294        C302   1.485       .  S
N295        C296   1.369       .  A
C296        N297   1.356       .  A
C296        C455   1.481       .  S
C298        N299   1.359       .  A
C298        N303   1.353       .  A
C298        C452   1.479       .  S
N299        C300   1.362       .  A
C300        N301   1.371       .  A
C300        C447   1.488       .  S
N301        C302   1.367       .  A
C302        N303   1.359       .  A
C304        N305   1.370       .  A
C304        N309   1.358       .  A
C304        C443   1.488       .  S
N305        C306   1.370       .  A
C306        N307   1.357       .  A
C306        C440   1.483       .  S
N307        C308   1.355       .  A
C308        N309   1.357       .  A
C308        C312   1.472       .  S
C310        N311   1.357       .  A
C310        N315   1.361       .  A
C310        C435   1.479       .  S
N311        C312   1.359       .  A
C312        N313   1.363       .  A
N313        C314   1.361       .  A
C314        N315   1.360       .  A
C314        C432   1.485       .  S
C316        N317   1.351       .  A
C316        N321   1.365       .  A
C316        C427   1.474       .  S
N317        C318   1.353       .  A
C318        N319   1.349       .  A
C318        C423   1.466       .  S
N319        C320   1.355       .  A
C320        N321   1.368       .  A
C320        C326   1.467       .  S
C322        N323   1.361       .  A
C322        N327   1.357       .  A
C322        C419   1.463       .  S
N323        C324   1.358       .  A
C324        N325   1.359       .  A
C324        C415   1.487       .  S
N325        C326   1.360       .  A
C326        N327   1.353       .  A
O328        C336   1.276       .  A
O328       Co348   2.004       .  S
O329        C337   1.253       .  A
O329       Co349   1.976       .  S
O330        C338   1.269       .  A
O330       Co350   1.913       .  S
O331        C339   1.262       .  A
O331       Co351   1.967       .  S
O332        C338   1.295       .  A
O332       Co349   2.113       .  S
O333        C339   1.279       .  A
O333       Co348   2.035       .  S
O334        C337   1.258       .  A
O334       Co351   1.981       .  S
O335        C336   1.272       .  A
O335       Co350   1.983       .  S
C336        C496   1.474       .  S
C337        C424   1.459       .  S
C338        C431   1.483       .  S
C339        C463   1.480       .  S
O340       Co348   1.966   1_554  S
O341       Co349   1.877       .  S
O342       Co350   1.999       .  S
O343       Co351   2.037       .  S
O344       Co349   1.973   1_554  S
O345       Co348   1.974   1_554  S
O346       Co351   2.029       .  S
O347       Co350   2.118       .  S
Co348       O352   2.010       .  S
Co349       O352   1.983       .  S
Co350       O352   2.026       .  S
Co351       O352   2.036       .  S
C353        C471   1.465       .  S
C354        C439   1.492       .  S
C355        C504   1.497       .  S
C356        C416   1.475       .  S
O357       Co377   2.030       .  S
O358       Co378   2.103       .  S
O359       Co379   1.990   1_554  S
O360       Co380   1.992   1_554  S
O361       Co378   1.981       .  S
O362       Co377   2.022       .  S
O363       Co380   1.890       .  S
O364       Co379   1.959   1_454  S
C365        C480   1.461       .  S
C366        C451   1.483       .  S
C367        C444   1.494       .  S
C368        C476   1.480       .  S
O369        C382   1.259       .  A
O369       Co377   1.970       .  S
O370        C383   1.272       .  A
O370       Co378   1.980       .  S
O371        C384   1.274       .  A
O371       Co379   2.035   1_455  S
O372        C385   1.297       .  A
O372       Co380   2.128       .  S
O373        C385   1.261       .  A
O373       Co378   1.888       .  S
O374        C384   1.259       .  A
O374       Co377   1.966       .  S
O375        C382   1.260   1_655  A
O375       Co380   1.998       .  S
O376        C383   1.279       .  A
O376       Co379   2.020       .  S
Co377       O381   2.015   1_455  S
Co378       O381   1.981       .  S
Co379       O381   2.041       .  S
Co380       O381   2.018       .  S
C382        C467   1.462       .  S
C383        C436   1.480       .  S
C384        C488   1.481       .  S
C385        C460   1.481       .  S
O386       Co406   2.024       .  S
O387       Co407   1.977   1_554  S
O388       Co408   1.954   1_544  S
O389       Co409   2.011       .  S
O390       Co407   2.026       .  S
O391       Co406   1.955   1_554  S
O392       Co409   2.030   1_545  S
O393       Co408   1.962   1_554  S
C394        C508   1.468       .  S
C395        C420   1.466       .  S
C396        C448   1.481       .  S
C397        C483   1.483       .  S
O398        C411   1.271       .  A
O398       Co406   1.881       .  S
O399        C412   1.254       .  A
O399       Co407   1.988       .  S
O400        C413   1.268       .  A
O400       Co408   2.033       .  S
O401        C414   1.297       .  A
O401       Co409   2.085   1_545  S
O402        C414   1.273       .  A
O402       Co407   1.899       .  S
O403        C413   1.260       .  A
O403       Co406   2.000       .  S
O404        C411   1.298       .  A
O404       Co409   2.086       .  S
O405        C412   1.270       .  A
O405       Co408   2.030   1_545  S
Co406       O410   1.931       .  S
Co407       O410   1.927   1_545  S
Co408       O410   2.095       .  S
Co409       O410   2.253       .  S
C411        C492   1.467       .  S
C412        C456   1.489       .  S
C413        C499   1.500       .  S
C414        C428   1.482       .  S
C415        C416   1.345       .  D
C415        H417   1.083       .  S
C416        H418   1.084       .  S
C419        C420   1.349       .  D
C419        H421   1.089       .  S
C420        H422   1.085       .  S
C423        C424   1.339       .  D
C423        H425   1.076       .  S
C424        H426   1.076       .  S
C427        C428   1.340       .  D
C427        H429   1.088       .  S
C428        H430   1.088       .  S
C431        C432   1.347       .  D
C431        H433   1.085       .  S
C432        H434   1.085       .  S
C435        C436   1.352       .  D
C435        H437   1.086       .  S
C436        H438   1.085       .  S
C439        C440   1.347       .  D
C439        H441   1.084       .  S
C440        H442   1.084       .  S
C443        C444   1.349       .  D
C443        H445   1.078       .  S
C447        C448   1.341       .  D
C447        H449   1.086       .  S
C448        H450   1.085       .  S
C451        C452   1.345       .  D
C451        H453   1.088       .  S
C452        H454   1.087       .  S
C455        C456   1.343       .  D
C455        H457   1.086       .  S
C456        H458   1.086       .  S
C459        C460   1.347       .  D
C459        H461   1.086       .  S
C460        H462   1.085       .  S
C463        C464   1.343       .  D
C463        H465   1.082       .  S
C464        H466   1.083       .  S
C467        C468   1.334       .  D
C467        H469   1.091       .  S
C468        H470   1.091       .  S
C471        C472   1.341       .  D
C471        H473   1.083       .  S
C472        H474   1.084       .  S
C475        C476   1.351       .  D
C475        H477   1.086       .  S
C476        H478   1.085       .  S
C479        C480   1.339       .  D
C479        H481   1.089       .  S
C480        H482   1.085       .  S
C483        C484   1.340       .  D
C483        H485   1.087       .  S
C484        H486   1.087       .  S
C487        C488   1.350       .  D
C487        H489   1.083       .  S
C488        H490   1.084       .  S
C491        C492   1.338       .  D
C491        H493   1.088       .  S
C492        H494   1.087       .  S
C495        C496   1.349       .  D
C495        H497   1.090       .  S
C496        H498   1.089       .  S
C499        C500   1.354       .  D
C499        H501   1.086       .  S
C500        H502   1.087       .  S
C503        C504   1.351       .  D
C503        H505   1.090       .  S
C504        H506   1.088       .  S
C507        C508   1.338       .  D
C507        H509   1.085       .  S
C508        H510   1.086       .  S
