geometry optimzed in LAMMPS
_audit_creation_date              2020-11-30 
_audit_creation_method            'lammps2cif' 
_symmetry_space_group_name_H-M    'P1' 
_symmetry_Int_Tables_number       1 
_symmetry_cell_setting            triclinic 
loop_ 
_symmetry_equiv_pos_as_xyz 
  x,y,z 
_cell_length_a                    29.383414267253787 
_cell_length_b                    29.91260524231434 
_cell_length_c                    29.903821148288845 
_cell_angle_alpha                 89.76468540097237 
_cell_angle_beta                  90.56413336878552 
_cell_angle_gamma                 90.41384120950927 
loop_ 
_atom_site_label 
_atom_site_type_symbol 
_atom_site_fract_x 
_atom_site_fract_y 
_atom_site_fract_z 
_atom_site_charge 
C1          C  0.36835420  0.64376931  0.63618290    -0.00380
C2          C  0.39556993  0.60202003  0.40348644     0.44560
N3          N  0.44987877  0.58534301  0.44950481     0.03450
C4          C  0.57534090  0.38789273  0.45013293    -0.04420
H5          H  0.40943551  0.36119038  0.47004344     0.08950
C6          C  0.42184597  0.45389911  0.62455068    -0.04770
Co7        Co  0.49739604  0.50068672  0.42298091     0.74180
N8          N  0.44658941  0.42276423  0.46002041    -0.23950
Co9        Co  0.49759537  0.42566481  0.51076641     0.74070
C10         C  0.40030514  0.41075671  0.61187370     0.44670
N11         N  0.45472997  0.56709018  0.58696387     0.03070
N12         N  0.44977001  0.43139628  0.56208361     0.03170
N13         N  0.57122180  0.43573086  0.39187802    -0.44800
H14         H  0.40509871  0.53625985  0.36462053     0.08930
N15         N  0.44739399  0.45134756  0.42634593     0.03460
N16         N  0.54893661  0.42863989  0.56033830     0.03200
C17         C  0.60247613  0.40813920  0.60681533     0.44800
N18         N  0.45207688  0.59346085  0.55166654    -0.23410
C19         C  0.58046732  0.55874359  0.38841652    -0.04330
N20         N  0.42077856  0.61717280  0.43848855    -0.44510
N21         N  0.57809123  0.39619717  0.57000050    -0.44740
C22         C  0.59843505  0.60437806  0.39740935     0.44580
N23         N  0.54493328  0.44878597  0.42511404     0.03450
N24         N  0.55216549  0.59357150  0.54909903    -0.23430
N25         N  0.44798235  0.55111859  0.42175084    -0.23920
N26         N  0.55343312  0.56467466  0.58262108     0.03090
H27         H  0.58827296  0.65529469  0.53714871     0.08980
H28         H  0.59365127  0.47347070  0.64725308     0.09010
N29         N  0.54566991  0.42065303  0.45919319    -0.23970
N30         N  0.45205704  0.46369640  0.59212034    -0.23580
N31         N  0.54673586  0.58570085  0.44624008     0.03450
C32         C  0.39811921  0.40154202  0.40449275     0.44850
C33         C  0.42005516  0.62436011  0.55944646    -0.04840
N34         N  0.55144876  0.46203881  0.58909518    -0.23580
H35         H  0.41711122  0.47350617  0.65439739     0.09000
N36         N  0.41990889  0.43969667  0.39285700    -0.44810
H37         H  0.41105157  0.64884734  0.53457415     0.08980
C38         C  0.60414457  0.61523616  0.60180760     0.44680
C39         C  0.41372326  0.55785811  0.39241955    -0.04330
Co40       Co  0.50013585  0.58979867  0.49899001     0.73820
N41         N  0.42812996  0.58088626  0.61998897    -0.44520
C42         C  0.59241273  0.39751866  0.40476885     0.44950
N43         N  0.57380520  0.61841668  0.43277881    -0.44510
Co44       Co  0.50300718  0.51434011  0.58827241     0.73890
C45         C  0.58460607  0.45260306  0.61905644    -0.04840
C46         C  0.41568755  0.39074700  0.44999157    -0.04400
N47         N  0.54809189  0.55093397  0.41934015    -0.23930
N48         N  0.41993178  0.39988213  0.57276583    -0.44690
H49         H  0.58123865  0.35907621  0.47126197     0.08960
C50         C  0.58326411  0.62599195  0.55773417    -0.04820
Cl51       Cl  0.49969874  0.50767555  0.50543458    -0.47820
C52         C  0.40480146  0.61807142  0.60665250     0.44710
H53         H  0.58766344  0.53627225  0.36130905     0.08920
N54         N  0.58303387  0.57666817  0.61430023    -0.44530
C55         C  0.63455892  0.37652678  0.63444797    -0.00380
C56         C  0.36759038  0.37236987  0.37267601    -0.00380
C57         C  0.63312011  0.63487668  0.37125459    -0.00380
C58         C  0.36235878  0.63149511  0.37688026    -0.00380
C59         C  0.62967297  0.37317882  0.37740959    -0.00380
C60         C  0.37001255  0.37849484  0.64029001    -0.00380
C61         C  0.63489869  0.64536034  0.63326175    -0.00380
C62         C  0.25159352  0.22737104  0.00042521     0.02670
C63         C  0.22323652  0.26378333  0.00055530     0.02670
C64         C  0.24697067  0.01127680  0.28782317     0.02670
C65         C  0.27107481  0.01241084  0.24847300     0.02670
C66         C  0.00021109  0.23184910  0.26922872     0.02670
C67         C  0.99888876  0.26489667  0.23779118     0.02670
C68         C  0.50149173  0.27921026  0.26558257     0.02670
C69         C  0.49963711  0.24684304  0.23342853     0.02670
C70         C  0.26573779  0.27640945  0.50746922     0.02670
C71         C  0.23211067  0.24485213  0.50770263     0.02670
C72         C  0.26504788  0.50186905  0.26664561     0.02670
C73         C  0.22720153  0.50018939  0.23989996     0.02670
C74         C  0.26391258  0.77741319  0.00839555     0.02670
C75         C  0.23272255  0.74256845  0.00625050     0.02670
C76         C  0.73307829  0.23802107  0.00494734     0.02670
C77         C  0.76761815  0.26824341  0.00510190     0.02670
C78         C  0.99616911  0.27261425  0.76979455     0.02670
C79         C  0.99455073  0.24108490  0.73703131     0.02670
C80         C  0.74239173  0.50173944  0.28327893     0.02670
C81         C  0.76768325  0.50021318  0.24421949     0.02670
C82         C  0.25413668  0.50723116  0.72647992     0.02670
C83         C  0.22367798  0.50796178  0.76140149     0.02670
C84         C  0.86471088  0.64186605  0.87670228    -0.00380
C85         C  0.89382880  0.60801077  0.90547024     0.44560
N86         N  0.94631766  0.58676488  0.95337409     0.03450
C87         C  0.07579261  0.38992385  0.94877057    -0.04420
H88         H  0.91000345  0.35971700  0.96532462     0.08950
C89         C  0.92292351  0.44400396  0.12604455    -0.04770
Co90       Co  0.99376850  0.50265537  0.92362879     0.74180
N91         N  0.94395844  0.42318430  0.95848563    -0.23950
Co92       Co  0.99427738  0.42265331  0.00936997     0.74070
C93         C  0.90194071  0.40057801  0.11361184     0.44670
N94         N  0.94994704  0.55832874  0.08799112     0.03070
N95         N  0.94624635  0.42476021  0.06075277     0.03170
N96         N  0.06749802  0.43659910  0.89054383    -0.44800
H97         H  0.90564703  0.54279707  0.86480922     0.08930
N98         N  0.94176483  0.45474489  0.92748318     0.03460
N99         N  0.04315229  0.42293783  0.06098738     0.03200
C100        C  0.09229726  0.39966518  0.11046493     0.44800
N101        N  0.94903505  0.58834949  0.05545439    -0.23410
C102        C  0.07879587  0.56089107  0.89073879    -0.04330
N103        N  0.91619667  0.61863268  0.94415740    -0.44510
N104        N  0.06727745  0.38803798  0.07395382    -0.44740
C105        C  0.10092535  0.60405800  0.90300038     0.44580
N106        N  0.04093366  0.44878150  0.92400442     0.03450
N107        N  0.04870180  0.58816259  0.05293016    -0.23430
N108        N  0.94566675  0.55476024  0.92329522    -0.23920
N109        N  0.04898558  0.55871634  0.08592793     0.03090
H110        H  0.08707339  0.64821469  0.04057597     0.08980
H111        H  0.08624770  0.46625341  0.14939228     0.09010
N112        N  0.04351746  0.42059991  0.95799955    -0.23970
N113        N  0.94959719  0.45603218  0.09174747    -0.23580
N114        N  0.04728074  0.58520589  0.95085999     0.03450
C115        C  0.89127740  0.40619504  0.90609800     0.44850
C116        C  0.91709780  0.61865669  0.06561007    -0.04840
N117        N  0.04738987  0.45666599  0.08904558    -0.23580
H118        H  0.91996591  0.46279190  0.15664226     0.09000
N119        N  0.91065795  0.44617121  0.89594125    -0.44810
H120        H  0.90895884  0.64728937  0.04501783     0.08980
C121        C  0.10040469  0.60778507  0.10558327     0.44680
C122        C  0.91315209  0.56416519  0.89288429    -0.04330
Co123      Co  0.99780184  0.58764902  0.00301090     0.73820
N124        N  0.92132689  0.56765403  0.12077858    -0.44520
C125        C  0.09334582  0.40116110  0.90381342     0.44950
N126        N  0.07839066  0.61623619  0.94073663    -0.44510
Co127      Co  0.99913673  0.50774022  0.08887629     0.73890
C128        C  0.07852296  0.44593213  0.12050251    -0.04840
C129        C  0.91373113  0.39119896  0.94776533    -0.04400
N130        N  0.04624492  0.55240873  0.92140761    -0.23930
N131        N  0.91824323  0.39164523  0.07231995    -0.44690
H132        H  0.08297991  0.36132931  0.96912548     0.08960
C133        C  0.08053688  0.61947165  0.06160134    -0.04820
Cl134      Cl  0.99645474  0.50515456  0.00625148    -0.47820
C135        C  0.89863024  0.60550880  0.10986035     0.44710
H136        H  0.08432943  0.54061013  0.86164209     0.08920
N137        N  0.07857827  0.56959448  0.11803694    -0.44530
C138        C  0.86640169  0.37180040  0.14014414    -0.00380
C139        C  0.12722732  0.37534189  0.87248309    -0.00380
C140        C  0.13239200  0.63619371  0.87369186    -0.00380
C141        C  0.86465260  0.37553332  0.87339808    -0.00380
C142        C  0.86881848  0.63388853  0.14237248    -0.00380
C143        C  0.73728777  0.51076774  0.73295864     0.02670
C144        C  0.77064568  0.51118014  0.76510690     0.02670
C145        C  0.13141501  0.63711660  0.13653771    -0.00380
C146        C  0.12741938  0.36871959  0.13457919    -0.00380
C147        C  0.23719854  0.01115341  0.73207378     0.02670
C148        C  0.26997056  0.01025336  0.76464933     0.02670
C149        C  0.49699255  0.74407591  0.28277010     0.02670
C150        C  0.49383213  0.77820625  0.25238161     0.02670
C151        C  0.50351441  0.25006636  0.77898765     0.02670
C152        C  0.50501155  0.28690986  0.75148078     0.02670
C153        C  0.63098122  0.13512796  0.87277152    -0.00380
C154        C  0.39807324  0.10788084  0.90506999     0.44560
N155        N  0.44468654  0.05404308  0.92454604     0.03450
C156        C  0.44211357  0.92439350  0.12131099    -0.04420
H157        H  0.46482897  0.09511284  0.14622433     0.08950
C158        C  0.61256327  0.08911233  0.06145448    -0.04770
Co159      Co  0.41361378  0.00468379  0.00835753     0.74180
N160        N  0.45000400  0.05435477  0.08869617    -0.23950
Co161      Co  0.50140769  0.00561505  0.08792986     0.74070
C162        C  0.59934994  0.10913166  0.10463268     0.44670
N163        N  0.57986672  0.05396754  0.95210939     0.03070
N164        N  0.55263043  0.05521149  0.08575708     0.03170
N165        N  0.38392850  0.92448401  0.07239834    -0.44800
H166        H  0.35637935  0.09512504  0.96969840     0.08930
N167        N  0.41588854  0.05355086  0.05971018     0.03460
N168        N  0.55284581  0.95732609  0.08645777     0.03200
C169        C  0.59766080  0.90258849  0.10498839     0.44800
N170        N  0.54898643  0.04928832  0.92028197    -0.23410
C171        C  0.37717241  0.92976715  0.94304126    -0.04330
N172        N  0.43587594  0.08473722  0.89321039    -0.44510
N173        N  0.56136363  0.92710454  0.11784383    -0.44740
C174        C  0.38994940  0.91094997  0.89898607     0.44580
N175        N  0.41568747  0.95445335  0.06046745     0.03450
N176        N  0.54643690  0.95428237  0.92357105    -0.23430
N177        N  0.41450909  0.05455782  0.95714349    -0.23920
N178        N  0.57978520  0.95576864  0.95351055     0.03090
H179        H  0.53613559  0.91686331  0.86334405     0.08980
H180        H  0.64214560  0.91566985  0.04291835     0.09010
N181        N  0.44971837  0.95561517  0.08963819    -0.23970
N182        N  0.58260253  0.05578429  0.05324074    -0.23580
N183        N  0.44247785  0.95620687  0.92402997     0.03450
C184        C  0.39780412  0.10636547  0.10655144     0.44850
C185        C  0.56211773  0.07318744  0.88498328    -0.04840
N186        N  0.58312947  0.95678396  0.05422705    -0.23580
H187        H  0.64155072  0.09699242  0.04078132     0.09000
N188        N  0.38400124  0.08326770  0.06958650    -0.44810
H189        H  0.54403998  0.07244017  0.85341230     0.08980
C190        C  0.60175762  0.90572347  0.90583584     0.44680
C191        C  0.38484188  0.08769888  0.94853204    -0.04330
Co192      Co  0.49543344  0.00327543  0.92290664     0.73820
N193        N  0.61212972  0.08342771  0.94118293    -0.44520
C194        C  0.39724795  0.90350096  0.11129160     0.44950
N195        N  0.43125262  0.92922963  0.89032804    -0.44510
Co196      Co  0.58189536  0.00580585  0.00340119     0.73890
C197        C  0.61274909  0.92343791  0.06284741    -0.04840
C198        C  0.44246616  0.08707617  0.11843517    -0.04400
N199        N  0.41133575  0.95718159  0.95561840    -0.23930
N200        N  0.56191701  0.08546773  0.11701538    -0.44690
H201        H  0.46534916  0.91862176  0.14875204     0.08960
C202        C  0.55657402  0.92329849  0.89282832    -0.04820
Cl203      Cl  0.49783734  0.00465561  0.00554071    -0.47820
C204        C  0.60278849  0.09896009  0.89922863     0.44710
H205        H  0.34625423  0.92508533  0.96177980     0.08920
N206        N  0.61294356  0.92746799  0.94419792    -0.44530
C207        C  0.62478341  0.87332175  0.13826749    -0.00380
C208        C  0.36345605  0.87607178  0.86890554    -0.00380
C209        C  0.37008566  0.14030624  0.87343014    -0.00380
C210        C  0.63462845  0.87483360  0.87954426    -0.00380
C211        C  0.36457005  0.87605494  0.14392636    -0.00380
C212        C  0.50154628  0.75073773  0.73297208     0.02670
C213        C  0.50266418  0.78553067  0.76268279     0.02670
C214        C  0.36746247  0.13853125  0.13486053    -0.00380
C215        C  0.62890337  0.13995769  0.13609157    -0.00380
C216        C  0.00132959  0.75737182  0.22020577     0.02670
C217        C  0.00264971  0.78943227  0.25270479     0.02670
C218        C  0.75710289  0.00885394  0.27332376     0.02670
C219        C  0.73062055  0.00779536  0.23607097     0.02670
C220        C  0.71873891  0.25715791  0.50565481     0.02670
C221        C  0.75562216  0.22974827  0.50535804     0.02670
C222        C  0.21701643  0.75921960  0.50302446     0.02670
C223        C  0.25037345  0.72719210  0.50424821     0.02670
C224        C  0.86448286  0.13598049  0.37327676    -0.00380
C225        C  0.88992362  0.09881492  0.40075804     0.44560
N226        N  0.94366915  0.05599102  0.42620391     0.03450
C227        C  0.93924245  0.92962194  0.62517870    -0.04420
H228        H  0.96960605  0.10193601  0.63844282     0.08950
C229        C  0.11700814  0.08402662  0.56379961    -0.04770
Co230      Co  0.91411675  0.00314395  0.50811589     0.74180
N231        N  0.95184016  0.05684786  0.58555286    -0.23950
Co232      Co  0.00228650  0.00652599  0.58774493     0.74070
C233        C  0.10127850  0.10658825  0.60439969     0.44670
N234        N  0.07838212  0.05756071  0.45488903     0.03070
N235        N  0.05378425  0.05446427  0.58550277     0.03170
N236        N  0.88560601  0.92631985  0.57148359    -0.44800
H237        H  0.84214106  0.07305857  0.45716019     0.08930
N238        N  0.91659110  0.05407479  0.55788451     0.03460
N239        N  0.05341703  0.95631076  0.58609233     0.03200
C240        C  0.10043955  0.90264387  0.60466964     0.44800
N241        N  0.04637053  0.05717648  0.42367628    -0.23410
C242        C  0.88286319  0.92339724  0.44547603    -0.04330
N243        N  0.93310237  0.08496186  0.39402512    -0.44510
N244        N  0.06387091  0.92680513  0.61793964    -0.44740
C245        C  0.89490559  0.90959928  0.39973160     0.44580
N246        N  0.91782221  0.95553616  0.56060085     0.03450
N247        N  0.04605372  0.95966195  0.41963797    -0.23430
N248        N  0.91058633  0.05009936  0.45520845    -0.23920
N249        N  0.07918644  0.95825148  0.44974821     0.03090
H250        H  0.03574021  0.92610194  0.35666820     0.08980
H251        H  0.13966361  0.91308194  0.53865788     0.09010
N252        N  0.94993726  0.95816590  0.59162507    -0.23970
N253        N  0.08503363  0.05301175  0.55427826    -0.23580
N254        N  0.94230966  0.96024126  0.42328748     0.03450
C255        C  0.89980459  0.10977112  0.60213078     0.44850
C256        C  0.05632496  0.08882458  0.39325473    -0.04840
N257        N  0.08200315  0.95474739  0.55229240    -0.23580
H258        H  0.14770362  0.08994955  0.54492284     0.09000
N259        N  0.88471374  0.08400159  0.56734360    -0.44810
H260        H  0.03755173  0.09439486  0.36245410     0.08980
C261        C  0.09814941  0.90843087  0.40029051     0.44680
C262        C  0.87462266  0.07340897  0.44067878    -0.04330
Co263      Co  0.99477166  0.00844767  0.42299745     0.73820
N264        N  0.10965523  0.08902336  0.44767324    -0.44520
C265        C  0.89588499  0.90797311  0.61194737     0.44950
N266        N  0.93019131  0.93629011  0.38812726    -0.44510
Co267      Co  0.08179874  0.00551291  0.50266858     0.73890
C268        C  0.11142671  0.92120024  0.56002688    -0.04840
C269        C  0.94593331  0.09236403  0.61237448    -0.04400
N270        N  0.91389296  0.95497897  0.45699015    -0.23930
N271        N  0.06254965  0.08516720  0.61638194    -0.44690
H272        H  0.95847134  0.92587313  0.65595834     0.08960
C273        C  0.05518600  0.92994867  0.38713233    -0.04820
Cl274      Cl  0.99808216  0.00526979  0.50536427    -0.47820
C275        C  0.09881682  0.11043479  0.40885124     0.44710
H276        H  0.85298795  0.91466951  0.46456181     0.08920
N277        N  0.11128411  0.92917969  0.43883627    -0.44530
C278        C  0.86943974  0.87848427  0.36645398    -0.00380
C279        C  0.12928078  0.87723544  0.37275552    -0.00380
C280        C  0.13260258  0.87433116  0.63616925    -0.00380
C281        C  0.86670258  0.13512193  0.63413667    -0.00380
C282        C  0.86466119  0.87494869  0.63900996    -0.00380
C283        C  0.74037235  0.73972560  0.49966699     0.02670
C284        C  0.77326315  0.77234699  0.49718862     0.02670
C285        C  0.13302076  0.13619952  0.37852559    -0.00380
C286        C  0.12777835  0.14007190  0.63386131    -0.00380
C287        C  0.00038793  0.74090433  0.77239968     0.02670
C288        C  0.00040072  0.77310058  0.73957426     0.02670
C289        C  0.74063631  0.00683674  0.78113222     0.02670
C290        C  0.77319304  0.00544119  0.74885830     0.02670
C291        C  0.75066080  0.72382738  0.01353193     0.02670
C292        C  0.71967228  0.75810476  0.01489310     0.02670
C293        C  0.93247503  0.82137138  0.64412061     0.25700
C294        C  0.89603675  0.84244150  0.66588170    -0.22410
C295        C  0.88752725  0.82868917  0.71079960     0.20610
C296        C  0.92119994  0.80722402  0.73598745     0.25640
C297        C  0.95917604  0.78924659  0.71469603    -0.22350
C298        C  0.96206801  0.79356869  0.66775336     0.20550
F299        F  0.99580771  0.77317907  0.64496973    -0.12310
F300        F  0.93878811  0.82668696  0.59946931    -0.14670
F301        F  0.91709710  0.80590066  0.78110099    -0.14670
F302        F  0.84690827  0.83567113  0.73075087    -0.12310
C303        C  0.78836737  0.91284167  0.66551825     0.25700
C304        C  0.83553267  0.90365672  0.67169035    -0.22410
C305        C  0.85579434  0.92223637  0.71103099     0.20610
C306        C  0.82874709  0.94259515  0.74341377     0.25640
C307        C  0.78772231  0.96182101  0.72968661    -0.22350
C308        C  0.76854531  0.94765433  0.68905925     0.20550
F309        F  0.72993606  0.96672576  0.67273659    -0.12310
F310        F  0.76018938  0.88872098  0.63881684    -0.14670
F311        F  0.84686397  0.95253509  0.78419943    -0.14670
F312        F  0.90102876  0.91860570  0.71979072    -0.12310
C313        C  0.83258570  0.79882879  0.60703131     0.25700
C314        C  0.83476917  0.84669140  0.60558122    -0.22410
C315        C  0.80910208  0.86776133  0.57090320     0.20610
C316        C  0.78655640  0.84291285  0.53833242     0.25640
C317        C  0.78997694  0.79629822  0.53751583    -0.22350
C318        C  0.81306936  0.77445440  0.57213599     0.20550
F319        F  0.81826771  0.72939260  0.57164555    -0.12310
F320        F  0.84839515  0.77427274  0.64199648    -0.14670
F321        F  0.76183385  0.86478281  0.50657340    -0.14670
F322        F  0.80245468  0.91266054  0.56985502    -0.12310
C323        C  0.85495865  0.05893136  0.67378795     0.25700
C324        C  0.83940908  0.10242632  0.66413943    -0.22410
C325        C  0.80249770  0.11759970  0.69068391     0.20610
C326        C  0.77658599  0.08647976  0.71512298     0.25640
C327        C  0.79667076  0.04542158  0.72789100    -0.22350
C328        C  0.84098506  0.03877220  0.71248100     0.20550
F329        F  0.87277816  0.01625450  0.73628741    -0.12310
F330        F  0.88931263  0.03844086  0.65267707    -0.14670
F331        F  0.73269995  0.09666155  0.72326447    -0.14670
F332        F  0.78864877  0.16079694  0.68933167    -0.12310
C333        C  0.07134796  0.86835262  0.69779166     0.25700
C334        C  0.10326280  0.84660956  0.67018010    -0.22410
C335        C  0.11002793  0.80010283  0.67912555     0.20610
C336        C  0.07799915  0.77523442  0.70315561     0.25640
C337        C  0.04252901  0.79692762  0.72496458    -0.22350
C338        C  0.04205032  0.84388375  0.72500343     0.20550
F339        F  0.01081097  0.86613011  0.74945251    -0.12310
F340        F  0.07053666  0.91354667  0.70133340    -0.14670
F341        F  0.08048026  0.72996834  0.70270019    -0.14670
F342        F  0.14794226  0.77828167  0.66605363    -0.12310
C343        C  0.86718353  0.81617514  0.42489213     0.25700
C344        C  0.84332208  0.84161148  0.39265065    -0.22410
C345        C  0.79608140  0.83196452  0.38720504     0.20610
C346        C  0.77213808  0.81044472  0.42132714     0.25640
C347        C  0.79590707  0.78865614  0.45583538    -0.22350
C348        C  0.84384032  0.78909857  0.45513677     0.20550
F349        F  0.86812126  0.76625849  0.48650972    -0.12310
F350        F  0.91316901  0.81927004  0.42872959    -0.14670
F351        F  0.72595687  0.81138182  0.42076764    -0.14670
F352        F  0.77237413  0.84398197  0.34995890    -0.12310
C353        C  0.19852278  0.82650388  0.39597286     0.25700
C354        C  0.15454163  0.84416766  0.40479873    -0.22410
C355        C  0.13137009  0.82396762  0.44096563     0.20610
C356        C  0.14843012  0.78562050  0.46059477     0.25640
C357        C  0.19555273  0.77853906  0.46161575    -0.22350
C358        C  0.22127649  0.80204744  0.42956070     0.20550
F359        F  0.26731343  0.79872143  0.42869304    -0.12310
F360        F  0.22046126  0.83451502  0.35700637    -0.14670
F361        F  0.11854503  0.75662620  0.47901842    -0.14670
F362        F  0.09291185  0.84072890  0.45885577    -0.12310
C363        C  0.22724631  0.81597593  0.56528768     0.25700
C364        C  0.20163527  0.78198446  0.54485384    -0.22410
C365        C  0.15726430  0.77464902  0.55993821     0.20610
C366        C  0.13453908  0.80834897  0.58232593     0.25640
C367        C  0.15943577  0.84221174  0.60498016    -0.22350
C368        C  0.20772112  0.84243659  0.59866100     0.20550
F369        F  0.23690592  0.86681060  0.62416024    -0.12310
F370        F  0.27139860  0.82273467  0.55398975    -0.14670
F371        F  0.08863571  0.80473624  0.58634305    -0.14670
F372        F  0.13596283  0.73481684  0.55306042    -0.12310
C373        C  0.80510999  0.17006316  0.47511002     0.25700
C374        C  0.77617345  0.20617580  0.46495087    -0.22410
C375        C  0.77662506  0.21998610  0.41903234     0.20610
C376        C  0.80434579  0.19711112  0.38839984     0.25640
C377        C  0.83833436  0.16736978  0.40433297    -0.22350
C378        C  0.84323012  0.16426139  0.45041864     0.20550
F379        F  0.88283485  0.15351079  0.47149929    -0.12310
F380        F  0.79820185  0.14110899  0.50915176    -0.14670
F381        F  0.80017466  0.20609095  0.34401440    -0.14670
F382        F  0.75147347  0.25361320  0.40208656    -0.12310
C383        C  0.78696960  0.15538489  0.59844662     0.25700
C384        C  0.83480302  0.16303200  0.60293868    -0.22410
C385        C  0.85371512  0.19815826  0.57705999     0.20610
C386        C  0.82589525  0.22681577  0.55210672     0.25640
C387        C  0.77868237  0.21877178  0.54875887    -0.22350
C388        C  0.75908322  0.18527338  0.57512841     0.20550
F389        F  0.71421922  0.17508448  0.56993074    -0.12310
F390        F  0.76741957  0.11582527  0.60997090    -0.14670
F391        F  0.84572443  0.25823123  0.52560394    -0.14670
F392        F  0.89948116  0.20487505  0.57614912    -0.12310
C393        C  0.79815847  0.92782674  0.35860891     0.25700
C394        C  0.83831799  0.91067337  0.33940499    -0.22410
C395        C  0.85053491  0.92788311  0.29667978     0.20610
C396        C  0.82160262  0.95665454  0.27329591     0.25640
C397        C  0.77942746  0.96833202  0.29091621    -0.22350
C398        C  0.76684173  0.95129822  0.33258162     0.20550
F399        F  0.72457721  0.95836975  0.34876472    -0.12310
F400        F  0.78794913  0.92043385  0.40220332    -0.14670
F401        F  0.83624053  0.97573803  0.23467353    -0.14670
F402        F  0.89223990  0.92121133  0.27898780    -0.12310
C403        C  0.80254347  0.08072212  0.27198074     0.25700
C404        C  0.77335344  0.05116558  0.29437643    -0.22410
C405        C  0.76466447  0.05889867  0.33963868     0.20610
C406        C  0.79235801  0.08762176  0.36426321     0.25640
C407        C  0.82781337  0.11213842  0.34359782    -0.22350
C408        C  0.82643662  0.11354991  0.29595441     0.20550
F409        F  0.84646536  0.14671526  0.27201042    -0.12310
F410        F  0.80892970  0.07728751  0.22724985    -0.14670
F411        F  0.78292124  0.09232189  0.40820549    -0.14670
F412        F  0.72926516  0.03878475  0.36041962    -0.12310
C413        C  0.08476764  0.81645800  0.26436612     0.25700
C414        C  0.04560545  0.79478535  0.28043564    -0.22410
C415        C  0.04113378  0.79024269  0.32680712     0.20610
C416        C  0.06519089  0.81893796  0.35522009     0.25640
C417        C  0.10212561  0.84562063  0.33977656    -0.22350
C418        C  0.11490628  0.83805460  0.29440987     0.20550
F419        F  0.15560587  0.85197924  0.27828920    -0.12310
F420        F  0.09249029  0.81920030  0.21978433    -0.14670
F421        F  0.04782731  0.82353239  0.39640171    -0.14670
F422        F  0.00567879  0.76631755  0.34367922    -0.12310
C423        C  0.97416831  0.85413018  0.29675366     0.25700
C424        C  0.96250238  0.81776017  0.26917600    -0.22410
C425        C  0.91511748  0.80717627  0.26781940     0.20610
C426        C  0.88526309  0.82641185  0.29909785     0.25640
C427        C  0.90219316  0.85343226  0.33455103    -0.22350
C428        C  0.94934732  0.86121427  0.33498254     0.20550
F429        F  0.97307258  0.86925233  0.37314668    -0.12310
F430        F  0.01398956  0.87675895  0.29193389    -0.14670
F431        F  0.83991183  0.81890231  0.29430643    -0.14670
F432        F  0.89556333  0.78402864  0.23401765    -0.12310
C433        C  0.72004803  0.05469420  0.16836149     0.25700
C434        C  0.71363827  0.04879151  0.21425595    -0.22410
C435        C  0.68482814  0.07777932  0.23672465     0.20610
C436        C  0.66154720  0.11066128  0.21303082     0.25640
C437        C  0.65957688  0.10954389  0.16526472    -0.22350
C438        C  0.69074411  0.08114212  0.14374201     0.20550
F439        F  0.69723516  0.08271445  0.09898635    -0.12310
F440        F  0.75535499  0.03577004  0.14700846    -0.14670
F441        F  0.64315788  0.14368448  0.23776192    -0.14670
F442        F  0.67873965  0.07422104  0.28152364    -0.12310
C443        C  0.68297655  0.89630091  0.81007224     0.25700
C444        C  0.67048596  0.90437292  0.85498148    -0.22410
C445        C  0.69456607  0.93924853  0.87712169     0.20610
C446        C  0.72208766  0.96888839  0.85315935     0.25640
C447        C  0.72420479  0.96657177  0.80623326    -0.22350
C448        C  0.70375011  0.92966241  0.78510697     0.20550
F449        F  0.69848855  0.92736634  0.74040311    -0.12310
F450        F  0.67371953  0.85705150  0.78909191    -0.14670
F451        F  0.74460516  0.00170353  0.87572586    -0.14670
F452        F  0.69453201  0.94306454  0.92223036    -0.12310
C453        C  0.72684729  0.81041863  0.94889523     0.25700
C454        C  0.70015435  0.78126003  0.97450755    -0.22410
C455        C  0.65252818  0.78351451  0.96873373     0.20610
C456        C  0.63258713  0.81738953  0.94322255     0.25640
C457        C  0.65906370  0.84355513  0.91374553    -0.22350
C458        C  0.70723310  0.83786762  0.91631862     0.20550
F459        F  0.73674369  0.85847004  0.88828616    -0.12310
F460        F  0.77195556  0.81482837  0.95661851    -0.14670
F461        F  0.58644759  0.82028101  0.94270109    -0.14670
F462        F  0.62460063  0.75241651  0.98688006    -0.12310
C463        C  0.58483372  0.87022783  0.80734284     0.25700
C464        C  0.60522174  0.84778225  0.84455835    -0.22410
C465        C  0.59799433  0.80069307  0.84631852     0.20610
C466        C  0.56302255  0.78115364  0.82138190     0.25640
C467        C  0.54535726  0.80279417  0.78352765    -0.22350
C468        C  0.56018810  0.84655080  0.77479546     0.20550
F469        F  0.54924711  0.86720757  0.73578520    -0.12310
F470        F  0.59113541  0.91480565  0.80068974    -0.14670
F471        F  0.54429706  0.74251564  0.83669932    -0.14670
F472        F  0.62406662  0.77235882  0.87068683    -0.12310
C473        C  0.45092605  0.85003603  0.77702256     0.25700
C474        C  0.46090856  0.80462828  0.78323845    -0.22410
C475        C  0.43797297  0.78116227  0.81683777     0.20610
C476        C  0.40591253  0.80250495  0.84366003     0.25640
C477        C  0.39846078  0.84964800  0.84018845    -0.22350
C478        C  0.42359757  0.87283940  0.80706707     0.20550
F479        F  0.41882636  0.91761088  0.80102358    -0.12310
F480        F  0.46698857  0.87269587  0.74117151    -0.14670
F481        F  0.38390502  0.77605485  0.87343242    -0.14670
F482        F  0.44754209  0.73750384  0.82476121    -0.12310
C483        C  0.70183003  0.83763135  0.11047711     0.25700
C484        C  0.65368732  0.83648705  0.11369322    -0.22410
C485        C  0.63327284  0.79765085  0.09357907     0.20610
C486        C  0.65986882  0.76530382  0.07272246     0.25640
C487        C  0.70293631  0.77727958  0.05740714    -0.22350
C488        C  0.72257414  0.81636920  0.07482166     0.20550
F489        F  0.76062328  0.83489078  0.05691170    -0.12310
F490        F  0.72957772  0.85381590  0.14308105    -0.14670
F491        F  0.64127521  0.72499324  0.06211701    -0.14670
F492        F  0.58819037  0.78947133  0.09287932    -0.12310
C493        C  0.63781216  0.92619938  0.20722278     0.25700
C494        C  0.65287470  0.90878612  0.16566596    -0.22410
C495        C  0.69236725  0.92940299  0.14810787     0.20610
C496        C  0.72351885  0.95053128  0.17659946     0.25640
C497        C  0.70954878  0.96619618  0.21820793    -0.22350
C498        C  0.66585668  0.95447167  0.23287298     0.20550
F499        F  0.64915201  0.97290410  0.27069963    -0.12310
F500        F  0.59453814  0.91960066  0.22141792    -0.14670
F501        F  0.76673632  0.95754497  0.16250918    -0.14670
F502        F  0.70298845  0.92652992  0.10415366    -0.12310
C503        C  0.71071951  0.11514553  0.83821134     0.25700
C504        C  0.66243191  0.11021475  0.83958658    -0.22410
C505        C  0.64283062  0.08025570  0.80819931     0.20610
C506        C  0.66936210  0.04910971  0.78640723     0.25640
C507        C  0.71639054  0.04785129  0.79392906    -0.22350
C508        C  0.73737883  0.08247391  0.81797397     0.20550
F509        F  0.78334841  0.08403054  0.82275225    -0.12310
F510        F  0.73259721  0.15152296  0.85504632    -0.14670
F511        F  0.64878597  0.01858527  0.75927495    -0.14670
F512        F  0.59792904  0.08093032  0.79790912    -0.12310
C513        C  0.42397883  0.21556076  0.78135777     0.25700
C514        C  0.46059244  0.23661890  0.80370726    -0.22410
C515        C  0.46426738  0.22947667  0.85036863     0.20610
C516        C  0.43765450  0.19661875  0.87188314     0.25640
C517        C  0.40240646  0.17355676  0.84862957    -0.22350
C518        C  0.39408840  0.18722811  0.80369325     0.20550
F519        F  0.35787010  0.17256083  0.77930866    -0.12310
F520        F  0.42007459  0.21570423  0.73656893    -0.14670
F521        F  0.44491337  0.18909380  0.91617130    -0.14670
F522        F  0.49819217  0.24990011  0.87393344    -0.12310
C523        C  0.53200926  0.17511326  0.80071451     0.25700
C524        C  0.54324313  0.21919873  0.78843329    -0.22410
C525        C  0.58931509  0.23206625  0.79636079     0.20610
C526        C  0.61930365  0.20116594  0.81669967     0.25640
C527        C  0.60079867  0.16545202  0.84262832    -0.22350
C528        C  0.55386170  0.15842475  0.83792365     0.20550
F529        F  0.52733523  0.14916088  0.87365606    -0.12310
F530        F  0.49281754  0.15481134  0.78732494    -0.14670
F531        F  0.66448388  0.21084598  0.81832536    -0.14670
F532        F  0.60490934  0.27415031  0.78935483    -0.12310
C533        C  0.41524305  0.77836712  0.21763355     0.25700
C534        C  0.44989610  0.80085267  0.24109895    -0.22410
C535        C  0.45027255  0.84779379  0.24002288     0.20610
C536        C  0.42292847  0.87115890  0.20957312     0.25640
C537        C  0.39341270  0.84841442  0.17917007    -0.22350
C538        C  0.38593060  0.80196425  0.18900359     0.20550
F539        F  0.34895379  0.77906196  0.17386859    -0.12310
F540        F  0.41243516  0.73308567  0.21846391    -0.14670
F541        F  0.42271873  0.91645102  0.21262978    -0.14670
F542        F  0.48086883  0.87092829  0.26540380    -0.12310
C543        C  0.57575052  0.80798218  0.23989170     0.25700
C544        C  0.53256493  0.79447335  0.22374537    -0.22410
C545        C  0.52222507  0.80344066  0.17859436     0.20610
C546        C  0.54770567  0.83368856  0.15429284     0.25640
C547        C  0.59191221  0.84643680  0.16901313    -0.22350
C548        C  0.60683216  0.82877653  0.21084501     0.20550
F549        F  0.65045416  0.83469229  0.22514947    -0.12310
F550        F  0.58767179  0.80321691  0.28352508    -0.14670
F551        F  0.53039113  0.84533440  0.11360866    -0.14670
F552        F  0.48542613  0.78473868  0.15805027    -0.12310
C553        C  0.19506415  0.93735543  0.73330494     0.25700
C554        C  0.21877261  0.97042829  0.70981661    -0.22410
C555        C  0.21879105  0.96878511  0.66296439     0.20610
C556        C  0.19041826  0.93948350  0.63998390     0.25640
C557        C  0.16494179  0.90634475  0.66280043    -0.22350
C558        C  0.17176699  0.90368970  0.71024360     0.20550
F559        F  0.15716478  0.86866761  0.73535592    -0.12310
F560        F  0.19315504  0.93798321  0.77861832    -0.14670
F561        F  0.19225181  0.94105698  0.59485171    -0.14670
F562        F  0.24617322  0.99609015  0.63875265    -0.12310
C563        C  0.14068176  0.08403798  0.69801174     0.25700
C564        C  0.15930842  0.10927458  0.66231457    -0.22410
C565        C  0.20558878  0.10109703  0.65167834     0.20610
C566        C  0.23369169  0.07673088  0.68067899     0.25640
C567        C  0.21471530  0.05244233  0.71595957    -0.22350
C568        C  0.16806230  0.05664170  0.72456362     0.20550
F569        F  0.14835035  0.03154705  0.75712871    -0.12310
F570        F  0.09542569  0.08495335  0.70673708    -0.14670
F571        F  0.27830215  0.07160983  0.67052163    -0.14670
F572        F  0.22315823  0.11301897  0.61154186    -0.12310
C573        C  0.34240093  0.04946696  0.78451003     0.25700
C574        C  0.29460210  0.05065966  0.78169652    -0.22410
C575        C  0.27205805  0.08615736  0.80200242     0.20610
C576        C  0.29659433  0.11789434  0.82667636     0.25640
C577        C  0.34350815  0.11125224  0.83794062    -0.22350
C578        C  0.36651941  0.07926837  0.81190343     0.20550
F579        F  0.41257223  0.07778889  0.81105866    -0.12310
F580        F  0.36582191  0.01782657  0.76203709    -0.14670
F581        F  0.27415087  0.15566272  0.83790649    -0.14670
F582        F  0.22605551  0.08913739  0.80053647    -0.12310
C583        C  0.32529097  0.89912671  0.79211695     0.25700
C584        C  0.32909064  0.90301121  0.83945928    -0.22410
C585        C  0.29944615  0.93372578  0.85986978     0.20610
C586        C  0.27744986  0.96633243  0.83464238     0.25640
C587        C  0.28303272  0.96836048  0.78820411    -0.22350
C588        C  0.30490605  0.93307514  0.76673441     0.20550
F589        F  0.30855725  0.93246921  0.72154176    -0.12310
F590        F  0.34061891  0.86277131  0.77003280    -0.14670
F591        F  0.25202725  0.99733250  0.85588356    -0.14670
F592        F  0.29127875  0.93236761  0.90430159    -0.12310
C593        C  0.05219430  0.73705964  0.15780943     0.25700
C594        C  0.04271161  0.73453925  0.20342769    -0.22410
C595        C  0.06640639  0.70324337  0.22944383     0.20610
C596        C  0.09840947  0.67521601  0.20965511     0.25640
C597        C  0.10010416  0.67056065  0.16208517    -0.22350
C598        C  0.07581162  0.70314764  0.13688653     0.20550
F599        F  0.07993469  0.70663684  0.09197603    -0.12310
F600        F  0.03900399  0.77283892  0.13312987    -0.14670
F601        F  0.12871970  0.65563200  0.23778544    -0.14670
F602        F  0.05918170  0.70002386  0.27409623    -0.12310
C603        C  0.82188649  0.70378128  0.11824242     0.25700
C604        C  0.83309467  0.65813827  0.11283337    -0.22410
C605        C  0.80585888  0.63329833  0.08259243     0.20610
C606        C  0.77253138  0.65430663  0.05668798     0.25640
C607        C  0.77031186  0.70143009  0.05439737    -0.22350
C608        C  0.79591885  0.72557834  0.08609757     0.20550
F609        F  0.80001290  0.77026019  0.08449086    -0.12310
F610        F  0.83556072  0.72797344  0.15432791    -0.14670
F611        F  0.74280536  0.62800547  0.03400376    -0.14670
F612        F  0.80974889  0.58815734  0.07993436    -0.12310
C613        C  0.94677561  0.73712408  0.15942479     0.25700
C614        C  0.95956647  0.73451365  0.20437097    -0.22410
C615        C  0.93919171  0.70188508  0.23133682     0.20610
C616        C  0.90728259  0.67197904  0.21321979     0.25640
C617        C  0.90091891  0.66867511  0.16589535    -0.22350
C618        C  0.92216155  0.70258466  0.13962390     0.20550
F619        F  0.91420696  0.70648602  0.09513642    -0.12310
F620        F  0.95706246  0.77377599  0.13463065    -0.14670
F621        F  0.88224903  0.64848756  0.24304479    -0.14670
F622        F  0.94899199  0.70016376  0.27578801    -0.12310
C623        C  0.85327442  0.42231499  0.79892274     0.25700
C624        C  0.83482563  0.40457036  0.83973702    -0.22410
C625        C  0.78892857  0.41717539  0.84778661     0.20610
C626        C  0.77011730  0.45426594  0.82624041     0.25640
C627        C  0.78840434  0.46971743  0.78606489    -0.22350
C628        C  0.82790236  0.45000016  0.77062083     0.20550
F629        F  0.84384411  0.45991956  0.72927173    -0.12310
F630        F  0.89571744  0.41389596  0.78464667    -0.14670
F631        F  0.73159900  0.47267966  0.84263393    -0.14670
F632        F  0.75920320  0.39151757  0.87080729    -0.12310
C633        C  0.10761384  0.71285250  0.83673886     0.25700
C634        C  0.10128710  0.66564596  0.84283111    -0.22410
C635        C  0.06885536  0.64482773  0.81415393     0.20610
C636        C  0.04053220  0.66990329  0.78637431     0.25640
C637        C  0.04216445  0.71675481  0.78694540    -0.22350
C638        C  0.07708226  0.73798902  0.81100483     0.20550
F639        F  0.08003929  0.78326623  0.81216613    -0.12310
F640        F  0.14412222  0.73540264  0.85348169    -0.14670
F641        F  0.00888107  0.64831533  0.76083220    -0.14670
F642        F  0.06628143  0.59988353  0.81017324    -0.12310
C643        C  0.84025937  0.71179353  0.92485563     0.25700
C644        C  0.83307517  0.66688466  0.91016908    -0.22410
C645        C  0.79566124  0.64402492  0.92976755     0.20610
C646        C  0.76221462  0.66787474  0.95256886     0.25640
C647        C  0.77300860  0.70943885  0.97144082    -0.22350
C648        C  0.81435990  0.72939554  0.95939837     0.20550
F649        F  0.83152915  0.76451567  0.98290991    -0.12310
F650        F  0.87308723  0.73910332  0.90886741    -0.14670
F651        F  0.72054320  0.64910204  0.95867980    -0.14670
F652        F  0.78911997  0.59948122  0.92356373    -0.12310
C653        C  0.96488765  0.72157136  0.84510722     0.25700
C654        C  0.95973319  0.72579477  0.79842018    -0.22410
C655        C  0.92004788  0.70857506  0.77858784     0.20610
C656        C  0.88663040  0.68847535  0.80507953     0.25640
C657        C  0.89618998  0.67540352  0.85037543    -0.22350
C658        C  0.93615821  0.69410085  0.86979555     0.20550
F659        F  0.94596737  0.69018900  0.91391011    -0.12310
F660        F  0.99992975  0.74210187  0.86692732    -0.14670
F661        F  0.84561055  0.68088036  0.78518883    -0.14670
F662        F  0.91382243  0.70955083  0.73359221    -0.12310
C663        C  0.86105539  0.58923413  0.80873145     0.25700
C664        C  0.83706561  0.61434942  0.84077842    -0.22410
C665        C  0.78895745  0.61623927  0.83393376     0.20610
C666        C  0.76631654  0.58311523  0.80906820     0.25640
C667        C  0.79133340  0.55280764  0.78378483    -0.22350
C668        C  0.83848521  0.55964755  0.78039980     0.20550
F669        F  0.86322890  0.53783429  0.74955440    -0.12310
F670        F  0.90678226  0.59414364  0.80378890    -0.14670
F671        F  0.72021445  0.58061708  0.81016607    -0.14670
F672        F  0.76376494  0.65099194  0.84846295    -0.12310
C673        C  0.22072547  0.54775620  0.83552798     0.25700
C674        C  0.21785727  0.55039032  0.78829890    -0.22410
C675        C  0.19459513  0.58684323  0.76975352     0.20610
C676        C  0.17120757  0.61671095  0.79682613     0.25640
C677        C  0.16467740  0.60791316  0.84340091    -0.22350
C678        C  0.19220970  0.57393142  0.86238462     0.20550
F679        F  0.19162478  0.56609462  0.90712597    -0.12310
F680        F  0.24489600  0.51433522  0.85512143    -0.14670
F681        F  0.15484556  0.65366175  0.77597665    -0.14670
F682        F  0.18961361  0.59126711  0.72501488    -0.12310
C683        C  0.14838326  0.45462041  0.84355100     0.25700
C684        C  0.15630057  0.40842648  0.84367405    -0.22410
C685        C  0.18699503  0.39289719  0.81086368     0.20610
C686        C  0.20480726  0.42217094  0.77806231     0.25640
C687        C  0.19415509  0.46849736  0.77841033    -0.22350
C688        C  0.15720951  0.47967318  0.80567441     0.20550
F689        F  0.13421605  0.51840738  0.79981970    -0.12310
F690        F  0.13909354  0.47735549  0.88144825    -0.14670
F691        F  0.22233244  0.40241250  0.74165938    -0.14670
F692        F  0.19588509  0.34863083  0.80725439    -0.12310
C693        C  0.77028760  0.57680306  0.20904841     0.25700
C694        C  0.79285333  0.54207804  0.23118793    -0.22410
C695        C  0.84069271  0.54167627  0.23085502     0.20610
C696        C  0.86507719  0.57130571  0.20348320     0.25640
C697        C  0.84232578  0.60377333  0.17681642    -0.22350
C698        C  0.79452668  0.60849750  0.18469737     0.20550
F699        F  0.76952662  0.64311241  0.16881661    -0.12310
F700        F  0.72419605  0.57727429  0.20605474    -0.14670
F701        F  0.91119491  0.56986840  0.20555011    -0.14670
F702        F  0.86364041  0.50991949  0.25431730    -0.12310
C703        C  0.80719807  0.38838980  0.20103053     0.25700
C704        C  0.83439298  0.40366047  0.16502522    -0.22410
C705        C  0.82101857  0.44460115  0.14512889     0.20610
C706        C  0.79285904  0.47354185  0.16780769     0.25640
C707        C  0.77640232  0.46253554  0.21089422    -0.22350
C708        C  0.77459584  0.41670246  0.21969542     0.20550
F709        F  0.73417295  0.39790536  0.23078130    -0.12310
F710        F  0.80581175  0.34436019  0.21206623    -0.14670
F711        F  0.78110347  0.51200899  0.14669964    -0.14670
F712        F  0.83215079  0.45556907  0.10245906    -0.12310
C713        C  0.05647962  0.18869995  0.64289288     0.25700
C714        C  0.09540024  0.16895638  0.66273951    -0.22410
C715        C  0.10530475  0.18120365  0.70784072     0.20610
C716        C  0.07349314  0.20474955  0.73321831     0.25640
C717        C  0.03538891  0.22441180  0.71229593    -0.22350
C718        C  0.03033739  0.21916517  0.66587247     0.20550
F719        F  0.99633162  0.24005239  0.64310935    -0.12310
F720        F  0.04101987  0.17712027  0.60184541    -0.14670
F721        F  0.07915849  0.20573019  0.77824051    -0.14670
F722        F  0.14489258  0.16972707  0.72841596    -0.12310
C723        C  0.95171751  0.17127153  0.72731847     0.25700
C724        C  0.95220218  0.21772181  0.72309420    -0.22410
C725        C  0.91821842  0.23840199  0.69745804     0.20610
C726        C  0.88682721  0.21233215  0.67333104     0.25640
C727        C  0.89332084  0.16523751  0.66856990    -0.22350
C728        C  0.92369044  0.14542134  0.70015982     0.20550
F729        F  0.92765287  0.10070974  0.70527731    -0.12310
F730        F  0.98204429  0.15055035  0.75489796    -0.14670
F731        F  0.84985233  0.23376357  0.65667662    -0.14670
F732        F  0.91640989  0.28364489  0.69441096    -0.12310
C733        C  0.94269231  0.36163812  0.83553883     0.25700
C734        C  0.89747848  0.34768627  0.84421953    -0.22410
C735        C  0.88118098  0.31055894  0.81883171     0.20610
C736        C  0.91233414  0.28240015  0.79747735     0.25640
C737        C  0.95616463  0.29901909  0.78698874    -0.22350
C738        C  0.96564613  0.34306731  0.80046022     0.20550
F739        F  0.99821031  0.36842987  0.78086736    -0.12310
F740        F  0.96283680  0.39799231  0.85375953    -0.14670
F741        F  0.89969191  0.23941128  0.79040208    -0.14670
F742        F  0.83662269  0.29823688  0.81977508    -0.12310
C743        C  0.04301502  0.28169129  0.83781725     0.25700
C744        C  0.04009961  0.28605340  0.79122076    -0.22410
C745        C  0.06842908  0.31685439  0.76960433     0.20610
C746        C  0.09287612  0.34846824  0.79473625     0.25640
C747        C  0.09600388  0.34522164  0.84236216    -0.22350
C748        C  0.06986181  0.31091148  0.86299622     0.20550
F749        F  0.07083927  0.30479765  0.90793372    -0.12310
F750        F  0.01596499  0.25170523  0.85934546    -0.14670
F751        F  0.10719029  0.38506056  0.77191992    -0.14670
F752        F  0.06417624  0.32308167  0.72473471    -0.12310
C753        C  0.70601467  0.17782445  0.11238113     0.25700
C754        C  0.65833523  0.17041310  0.10598868    -0.22410
C755        C  0.63615024  0.19596992  0.07271017     0.20610
C756        C  0.66078112  0.22410590  0.04499891     0.25640
C757        C  0.70865503  0.22347187  0.04566053    -0.22350
C758        C  0.73108494  0.20105480  0.08044450     0.20550
F759        F  0.77720045  0.19985834  0.08273223    -0.12310
F760        F  0.72889887  0.16379156  0.14941787    -0.14670
F761        F  0.63746247  0.25089155  0.01636252    -0.14670
F762        F  0.59005745  0.19527405  0.06842646    -0.12310
C763        C  0.69319703  0.14345398  0.93387114     0.25700
C764        C  0.65842991  0.16361952  0.90757426    -0.22410
C765        C  0.65146303  0.21028484  0.91390954     0.20610
C766        C  0.68261153  0.23618920  0.93817294     0.25640
C767        C  0.71642916  0.21562721  0.96386709    -0.22350
C768        C  0.72167536  0.16915513  0.96127339     0.20550
F769        F  0.75319871  0.14829850  0.98734155    -0.12310
F770        F  0.70106290  0.09881873  0.93178044    -0.14670
F771        F  0.67544909  0.28083036  0.94203055    -0.14670
F772        F  0.61271609  0.23098662  0.90048838    -0.12310
C773        C  0.76605740  0.31603848  0.07265064     0.25700
C774        C  0.78949657  0.28596827  0.04622033    -0.22410
C775        C  0.83683810  0.28235583  0.05127967     0.20610
C776        C  0.86083412  0.31037244  0.08034418     0.25640
C777        C  0.83808642  0.34256440  0.10654195    -0.22350
C778        C  0.78951873  0.34458974  0.10150332     0.20550
F779        F  0.76316330  0.37499670  0.12207031    -0.12310
F780        F  0.72035392  0.32084248  0.06749488    -0.14670
F781        F  0.90649664  0.30438532  0.08428075    -0.14670
F782        F  0.86025877  0.25214670  0.02700655    -0.12310
C783        C  0.77735107  0.33733677  0.96167579     0.25700
C784        C  0.78348285  0.29097465  0.96423641    -0.22410
C785        C  0.81748757  0.27136381  0.93896632     0.20610
C786        C  0.84570527  0.29789797  0.91238621     0.25640
C787        C  0.83683122  0.34443953  0.90562625    -0.22350
C788        C  0.80605201  0.36374181  0.93595875     0.20550
F789        F  0.80369047  0.40883119  0.94104524    -0.12310
F790        F  0.74588017  0.35774839  0.98731868    -0.14670
F791        F  0.88523098  0.27872836  0.89983079    -0.14670
F792        F  0.82732398  0.22738077  0.94461498    -0.12310
C793        C  0.19553850  0.73579858  0.08221878     0.25700
C794        C  0.21804190  0.71590146  0.04639345    -0.22410
C795        C  0.21679684  0.66874634  0.04362756     0.20610
C796        C  0.18783664  0.64375672  0.07101088     0.25640
C797        C  0.16482486  0.66429601  0.10679380    -0.22350
C798        C  0.17542545  0.70986339  0.11510141     0.20550
F799        F  0.16411364  0.73080782  0.15357915    -0.12310
F800        F  0.18672429  0.77984475  0.08304358    -0.14670
F801        F  0.18447777  0.59897472  0.06423782    -0.14670
F802        F  0.24075294  0.64702265  0.01193462    -0.12310
C803        C  0.23312542  0.70061610  0.93363578     0.25700
C804        C  0.20961216  0.72572688  0.96507953    -0.22410
C805        C  0.16187509  0.72471831  0.96421098     0.20610
C806        C  0.13805936  0.69615347  0.93549381     0.25640
C807        C  0.16107668  0.66727018  0.90570186    -0.22350
C808        C  0.20953878  0.67284278  0.90354422     0.20550
F809        F  0.23519529  0.65350544  0.87171806    -0.12310
F810        F  0.27933803  0.70113887  0.93358638    -0.14670
F811        F  0.09205117  0.69997842  0.93436579    -0.14670
F812        F  0.13806076  0.75032167  0.99305984    -0.12310
C813        C  0.32768222  0.77844092  0.06523337     0.25700
C814        C  0.28307995  0.79092596  0.05286055    -0.22410
C815        C  0.26398695  0.82785405  0.07393282     0.20610
C816        C  0.28646743  0.84882150  0.10910140     0.25640
C817        C  0.33440969  0.84408118  0.11461514    -0.22350
C818        C  0.35454664  0.80799346  0.09122506     0.20550
F819        F  0.40023233  0.80155100  0.09315042    -0.12310
F820        F  0.34822081  0.74438383  0.04356826    -0.14670
F821        F  0.26018026  0.87413943  0.13573777    -0.14670
F822        F  0.22516171  0.84666730  0.05780383    -0.12310
C823        C  0.32834143  0.82284661  0.97549360     0.25700
C824        C  0.28518955  0.80242011  0.96890502    -0.22410
C825        C  0.26623265  0.80717242  0.92534527     0.20610
C826        C  0.29138323  0.82859766  0.89129236     0.25640
C827        C  0.33664549  0.84398308  0.89964313    -0.22350
C828        C  0.35637165  0.83205604  0.94052978     0.20550
F829        F  0.40125683  0.83923797  0.94968604    -0.12310
F830        F  0.33846561  0.84705263  0.01233391    -0.14670
F831        F  0.27144186  0.83348350  0.85046269    -0.14670
F832        F  0.22200777  0.79749892  0.91650055    -0.12310
C833        C  0.16568765  0.44336652  0.23258685     0.25700
C834        C  0.20902865  0.45822932  0.22004167    -0.22410
C835        C  0.22758461  0.44214925  0.18027387     0.20610
C836        C  0.20268912  0.41268583  0.15293036     0.25640
C837        C  0.15762978  0.39949374  0.16434180    -0.22350
C838        C  0.13903121  0.41826971  0.20345868     0.20550
F839        F  0.09470608  0.41152414  0.21439803    -0.12310
F840        F  0.14801492  0.45423884  0.27274256    -0.14670
F841        F  0.22165323  0.40094976  0.11354406    -0.14670
F842        F  0.26879939  0.45725207  0.16641232    -0.12310
C843        C  0.15970178  0.55058016  0.22911849     0.25700
C844        C  0.20566222  0.54107358  0.22136618    -0.22410
C845        C  0.22788873  0.56478592  0.18773099     0.20610
C846        C  0.20697139  0.60064448  0.16671843     0.25640
C847        C  0.15871312  0.60543070  0.16824833    -0.22350
C848        C  0.13555047  0.57807163  0.19967922     0.20550
F849        F  0.08981707  0.58098424  0.20513611    -0.12310
F850        F  0.13763280  0.53335953  0.26478390    -0.14670
F851        F  0.23521747  0.62909334  0.14491984    -0.14670
F852        F  0.26847446  0.55102450  0.17197987    -0.12310
C853        C  0.22230941  0.21818359  0.58923653     0.25700
C854        C  0.20429121  0.23155355  0.54748400    -0.22410
C855        C  0.15785076  0.22310218  0.53923160     0.20610
C856        C  0.13507749  0.19092805  0.56385354     0.25640
C857        C  0.15352511  0.17491517  0.60480156    -0.22350
C858        C  0.19416814  0.19620492  0.62000780     0.20550
F859        F  0.20954551  0.19114776  0.66265959    -0.12310
F860        F  0.26712017  0.22264472  0.59947079    -0.14670
F861        F  0.09641976  0.17443417  0.54508525    -0.14670
F862        F  0.13628593  0.24071907  0.50291972    -0.12310
C863        C  0.19700787  0.23935884  0.43011918     0.25700
C864        C  0.21931867  0.21937807  0.46659425    -0.22410
C865        C  0.22036727  0.17269258  0.46937962     0.20610
C866        C  0.19380149  0.14661634  0.44082657     0.25640
C867        C  0.16572591  0.16635506  0.40728062    -0.22350
C868        C  0.17280721  0.21301808  0.39937171     0.20550
F869        F  0.15750430  0.23392717  0.36189108    -0.12310
F870        F  0.19550813  0.28451054  0.42592140    -0.14670
F871        F  0.19626210  0.10177954  0.44665469    -0.14670
F872        F  0.24421837  0.15232222  0.50277646    -0.12310
C873        C  0.57455791  0.24264203  0.19491171     0.25700
C874        C  0.54017829  0.22191430  0.21926712    -0.22410
C875        C  0.53789996  0.17509638  0.22101195     0.20610
C876        C  0.56519845  0.14939859  0.19379662     0.25640
C877        C  0.59826146  0.16968443  0.16587114    -0.22350
C878        C  0.60479823  0.21702338  0.17060552     0.20550
F879        F  0.64073334  0.23965071  0.15331932    -0.12310
F880        F  0.57740749  0.28789808  0.19234014    -0.14670
F881        F  0.56246930  0.10438182  0.19899541    -0.14670
F882        F  0.50682191  0.15418816  0.24733220    -0.12310
C883        C  0.42173502  0.20989872  0.23120738     0.25700
C884        C  0.45783634  0.23090078  0.20911351    -0.22410
C885        C  0.46101606  0.22559823  0.16235315     0.20610
C886        C  0.43416665  0.19428085  0.13978199     0.25640
C887        C  0.39827248  0.17179007  0.16167824    -0.22350
C888        C  0.39046913  0.18358935  0.20733439     0.20550
F889        F  0.35300373  0.17003160  0.22994031    -0.12310
F890        F  0.41792186  0.21225155  0.27630695    -0.14670
F891        F  0.44133564  0.18831749  0.09540286    -0.14670
F892        F  0.49330594  0.24810901  0.13893856    -0.12310
C893        C  0.06716721  0.30583176  0.14069647     0.25700
C894        C  0.10098108  0.33239759  0.16200465    -0.22410
C895        C  0.10985584  0.32225946  0.20792698     0.20610
C896        C  0.07763924  0.29928758  0.23343031     0.25640
C897        C  0.03971795  0.27954036  0.21255924    -0.22350
C898        C  0.03708723  0.27989345  0.16567931     0.20550
F899        F  0.00347563  0.25701308  0.14402625    -0.12310
F900        F  0.06288775  0.30450333  0.09556129    -0.14670
F901        F  0.08232968  0.29925274  0.27858428    -0.14670
F902        F  0.14904943  0.33462835  0.22897769    -0.12310
C903        C  0.95349573  0.16472287  0.28377787     0.25700
C904        C  0.95899403  0.21107519  0.28819165    -0.22410
C905        C  0.93477014  0.23362607  0.32088036     0.20610
C906        C  0.90711422  0.21003723  0.35040528     0.25640
C907        C  0.89967263  0.16303455  0.34546844    -0.22350
C908        C  0.92543061  0.14086600  0.31256784     0.20550
F909        F  0.92132864  0.09605765  0.30618784    -0.12310
F910        F  0.97660766  0.14211107  0.25207944    -0.14670
F911        F  0.89089199  0.23376741  0.38526852    -0.14670
F912        F  0.94119774  0.27820954  0.32700981    -0.12310
C913        C  0.92046713  0.26867993  0.20161929     0.25700
C914        C  0.95633112  0.28936538  0.22498344    -0.22410
C915        C  0.95581857  0.33608499  0.22929874     0.20610
C916        C  0.92418757  0.36195435  0.20553687     0.25640
C917        C  0.89288022  0.34205952  0.17520922    -0.22350
C918        C  0.88788811  0.29457033  0.17882652     0.20550
F919        F  0.85144284  0.27249269  0.16129145    -0.12310
F920        F  0.91841610  0.22346573  0.19834423    -0.14670
F921        F  0.92459172  0.40661417  0.21245606    -0.14670
F922        F  0.98778042  0.35699221  0.25498419    -0.12310
C923        C  0.06809563  0.18129787  0.27264150     0.25700
C924        C  0.04245778  0.21550925  0.29158036    -0.22410
C925        C  0.04763801  0.22431908  0.33744996     0.20610
C926        C  0.07488786  0.19752551  0.36449723     0.25640
C927        C  0.10229210  0.16372135  0.34608808    -0.22350
C928        C  0.09701334  0.15506044  0.29944145     0.20550
F929        F  0.11573619  0.11882960  0.27991178    -0.12310
F930        F  0.06218810  0.17076523  0.22883828    -0.14670
F931        F  0.07498679  0.20513320  0.40928083    -0.14670
F932        F  0.02403798  0.25773065  0.35687432    -0.12310
C933        C  0.30507668  0.93557645  0.24231293     0.25700
C934        C  0.28301739  0.97160771  0.22194889    -0.22410
C935        C  0.28315101  0.97359978  0.17475662     0.20610
C936        C  0.31057066  0.94498226  0.14991059     0.25640
C937        C  0.33386656  0.90893415  0.17080714    -0.22350
C938        C  0.32439808  0.90216905  0.21705195     0.20550
F939        F  0.33410365  0.86380084  0.23939919    -0.12310
F940        F  0.31298203  0.93428128  0.28669358    -0.14670
F941        F  0.30929392  0.94971732  0.10488118    -0.14670
F942        F  0.25840254  0.00479693  0.15244821    -0.12310
C943        C  0.23220227  0.09611857  0.30476993     0.25700
C944        C  0.23645679  0.05098739  0.31835810    -0.22410
C945        C  0.21401810  0.04080273  0.35832447     0.20610
C946        C  0.17314118  0.06035435  0.36752884     0.25640
C947        C  0.16571780  0.10479458  0.35357506    -0.22350
C948        C  0.19830765  0.12310155  0.32350798     0.20550
F949        F  0.19774714  0.16715879  0.31254257    -0.12310
F950        F  0.26608014  0.11749906  0.28303968    -0.14670
F951        F  0.14511761  0.03646780  0.39409303    -0.14670
F952        F  0.23244394  0.01409940  0.39017220    -0.12310
C953        C  0.34113814  0.05373134  0.22953043     0.25700
C954        C  0.29360577  0.05259298  0.23005740    -0.22410
C955        C  0.26930767  0.08236396  0.20276541     0.20610
C956        C  0.29235083  0.11305216  0.17577855     0.25640
C957        C  0.34022070  0.10943979  0.16909522    -0.22350
C958        C  0.36409238  0.08104018  0.19934001     0.20550
F959        F  0.41001514  0.08168786  0.20243759    -0.12310
F960        F  0.36544222  0.02581890  0.25642082    -0.14670
F961        F  0.26752804  0.14734329  0.15889560    -0.14670
F962        F  0.22307266  0.08202856  0.20284450    -0.12310
C963        C  0.23673914  0.94523660  0.33890876     0.25700
C964        C  0.22207182  0.96902119  0.30079266    -0.22410
C965        C  0.17657713  0.96364339  0.28670328     0.20610
C966        C  0.14669368  0.93534259  0.31015389     0.25640
C967        C  0.16174131  0.91052214  0.34805111    -0.22350
C968        C  0.20566235  0.92124437  0.36466326     0.20550
F969        F  0.21783371  0.91223480  0.40766362    -0.12310
F970        F  0.27849777  0.95349755  0.35719834    -0.14670
F971        F  0.10268458  0.93291682  0.29611634    -0.14670
F972        F  0.16011313  0.98864696  0.25225488    -0.12310
C973        C  0.19313880  0.27225263  0.92099880     0.25700
C974        C  0.21579433  0.29101444  0.95798225    -0.22410
C975        C  0.21861645  0.33828046  0.96001658     0.20610
C976        C  0.19050353  0.36508797  0.93257447     0.25640
C977        C  0.16214805  0.34576788  0.89936044    -0.22350
C978        C  0.16965825  0.29941917  0.89046155     0.20550
F979        F  0.15431614  0.27921100  0.85263026    -0.12310
F980        F  0.18953766  0.22728128  0.91642355    -0.14670
F981        F  0.18945441  0.40979904  0.93999255    -0.14670
F982        F  0.24276252  0.35804038  0.99356534    -0.12310
C983        C  0.30114702  0.14029499  0.07755572     0.25700
C984        C  0.33528112  0.16435871  0.10160574    -0.22410
C985        C  0.33651469  0.21171253  0.09441807     0.20610
C986        C  0.30984514  0.23162695  0.06105486     0.25640
C987        C  0.27432804  0.20778527  0.04046789    -0.22350
C988        C  0.26860954  0.16251629  0.05159450     0.20550
F989        F  0.23090642  0.13967330  0.03842089    -0.12310
F990        F  0.29566683  0.09549899  0.08318468    -0.14670
F991        F  0.31639662  0.27557454  0.05120352    -0.14670
F992        F  0.36164730  0.24030109  0.11961755    -0.12310
C993        C  0.15744070  0.30647843  0.02945512     0.25700
C994        C  0.19535580  0.27998602  0.04030244    -0.22410
C995        C  0.20727136  0.27883250  0.08659010     0.20610
C996        C  0.18636088  0.30805789  0.11671151     0.25640
C997        C  0.15612165  0.34152630  0.10129830    -0.22350
C998        C  0.14844202  0.34342894  0.05505841     0.20550
F999        F  0.13863972  0.38208670  0.03330444    -0.12310
F1000       F  0.13382111  0.30111937  0.99066514    -0.14670
F1001       F  0.19686913  0.30430219  0.16081178    -0.14670
F1002       F  0.23429947  0.24759203  0.10513316    -0.12310
C1003       C  0.26630293  0.16601710  0.94689373     0.25700
C1004       C  0.27306177  0.21065311  0.95913256    -0.22410
C1005       C  0.30783733  0.23503642  0.93879643     0.20610
C1006       C  0.33647214  0.21453428  0.90827240     0.25640
C1007       C  0.33587403  0.16692955  0.90274693    -0.22350
C1008       C  0.29933289  0.14347003  0.92319456     0.20550
F1009       F  0.29308442  0.09882109  0.91711230    -0.12310
F1010       F  0.22754095  0.14397030  0.95788825    -0.14670
F1011       F  0.36337220  0.24266575  0.88462172    -0.14670
F1012       F  0.31458997  0.27883291  0.94883636    -0.12310
C1013       C  0.54319462  0.73351523  0.66281833     0.25700
C1014       C  0.54217092  0.73218669  0.70978450    -0.22410
C1015       C  0.57365669  0.70478882  0.73193035     0.20610
C1016       C  0.60614418  0.68096705  0.70833529     0.25640
C1017       C  0.60362108  0.67708090  0.66085556    -0.22350
C1018       C  0.57225340  0.70575938  0.63880031     0.20550
F1019       F  0.57143605  0.70957413  0.59371459    -0.12310
F1020       F  0.51428274  0.76050264  0.63976225    -0.14670
F1021       F  0.64007807  0.66277089  0.73330609    -0.14670
F1022       F  0.57148055  0.69760321  0.77636414    -0.12310
C1023       C  0.64086584  0.58235052  0.69287314     0.25700
C1024       C  0.66324973  0.61440271  0.66543636    -0.22410
C1025       C  0.71146733  0.61849809  0.67175852     0.20610
C1026       C  0.73594868  0.58631286  0.69563079     0.25640
C1027       C  0.71319207  0.55168947  0.71774765    -0.22350
C1028       C  0.66548879  0.55157696  0.71825398     0.20550
F1029       F  0.64253535  0.52023581  0.74229752    -0.12310
F1030       F  0.59499242  0.58258587  0.69790049    -0.14670
F1031       F  0.78210444  0.58778156  0.69481998    -0.14670
F1032       F  0.73580699  0.65405824  0.65664218    -0.12310
C1033       C  0.69636270  0.64904420  0.57314424     0.25700
C1034       C  0.66828662  0.67257080  0.60317502    -0.22410
C1035       C  0.67605741  0.71960155  0.60681074     0.20610
C1036       C  0.70367392  0.74231285  0.57609165     0.25640
C1037       C  0.72809029  0.71855609  0.54384712    -0.22350
C1038       C  0.72765680  0.67153242  0.54610957     0.20550
F1039       F  0.75253151  0.64751658  0.51677480    -0.12310
F1040       F  0.69395021  0.60376519  0.57039274    -0.14670
F1041       F  0.70251263  0.78764002  0.57509983    -0.14670
F1042       F  0.65739371  0.74454148  0.63952949    -0.12310
C1043       C  0.42574838  0.37433457  0.70802707     0.25700
C1044       C  0.40210177  0.35205859  0.67267979    -0.22410
C1045       C  0.41020056  0.30529642  0.66916394     0.20610
C1046       C  0.44670239  0.28637090  0.69172005     0.25640
C1047       C  0.46349806  0.30613377  0.73077248    -0.22350
C1048       C  0.44959695  0.34970761  0.74040182     0.20550
F1049       F  0.46005892  0.36894400  0.78018698    -0.12310
F1050       F  0.42129792  0.41883766  0.71489480    -0.14670
F1051       F  0.46476495  0.24784852  0.67595708    -0.14670
F1052       F  0.38328073  0.27639315  0.64619824    -0.12310
C1053       C  0.30762235  0.43688583  0.63964363     0.25700
C1054       C  0.33604769  0.40848686  0.66537192    -0.22410
C1055       C  0.32789565  0.40637736  0.71214738     0.20610
C1056       C  0.30194435  0.43909881  0.73251389     0.25640
C1057       C  0.27311495  0.46621650  0.70660794    -0.22350
C1058       C  0.27391692  0.46181607  0.65984817     0.20550
F1059       F  0.24327935  0.48299275  0.63331307    -0.12310
F1060       F  0.31010965  0.43777908  0.59428254    -0.14670
F1061       F  0.30278451  0.44250286  0.77780380    -0.14670
F1062       F  0.34250904  0.37219055  0.73836655    -0.12310
C1063       C  0.29375463  0.33876982  0.61427050     0.25700
C1064       C  0.34173653  0.34610273  0.60922653    -0.22410
C1065       C  0.36316286  0.32087255  0.57533126     0.20610
C1066       C  0.33794053  0.29367964  0.54675419     0.25640
C1067       C  0.29019079  0.29355089  0.54757422    -0.22350
C1068       C  0.26826385  0.31645109  0.58163320     0.20550
F1069       F  0.22215534  0.31803183  0.58316508    -0.12310
F1070       F  0.27058454  0.35200703  0.65087449    -0.14670
F1071       F  0.36047251  0.26857137  0.51649782    -0.14670
F1072       F  0.40914516  0.31759932  0.57297223    -0.12310
C1073       C  0.67031950  0.44982056  0.37377561     0.25700
C1074       C  0.66474386  0.40603331  0.35732147    -0.22410
C1075       C  0.70032934  0.39017542  0.32964788     0.20610
C1076       C  0.73376191  0.41976534  0.31347446     0.25640
C1077       C  0.72685280  0.46562996  0.31649810    -0.22350
C1078       C  0.70238390  0.47796118  0.35515397     0.20550
F1079       F  0.71427702  0.51393730  0.37984435    -0.12310
F1080       F  0.65190072  0.46321741  0.41291954    -0.14670
F1081       F  0.77587622  0.40383656  0.30507753    -0.14670
F1082       F  0.70601563  0.34583015  0.32279929    -0.12310
C1083       C  0.65855410  0.26883590  0.44807961     0.25700
C1084       C  0.70128937  0.27996249  0.46588845    -0.22410
C1085       C  0.72072248  0.32152209  0.45623627     0.20610
C1086       C  0.69812373  0.35177904  0.42921936     0.25640
C1087       C  0.65464080  0.34124337  0.41029120    -0.22350
C1088       C  0.63371816  0.30076331  0.42437908     0.20550
F1089       F  0.58960296  0.29132624  0.41391547    -0.12310
F1090       F  0.64008582  0.22776240  0.45532674    -0.14670
F1091       F  0.71830216  0.39244504  0.42548579    -0.14670
F1092       F  0.76126694  0.33370508  0.47495025    -0.12310
C1093       C  0.57643842  0.37213548  0.30819438     0.25700
C1094       C  0.60650527  0.34866487  0.33688228    -0.22410
C1095       C  0.61299130  0.30268077  0.32651845     0.20610
C1096       C  0.58024282  0.27906794  0.30167834     0.25640
C1097       C  0.54456741  0.30199295  0.28043533    -0.22350
C1098       C  0.54565074  0.34903167  0.28069618     0.20550
F1099       F  0.51421280  0.37259675  0.25699845    -0.12310
F1100       F  0.57587204  0.41744833  0.30726649    -0.14670
F1101       F  0.58165066  0.23375511  0.30186756    -0.14670
F1102       F  0.64996177  0.27967094  0.34097769    -0.12310
C1103       C  0.42632948  0.64626561  0.32056346     0.25700
C1104       C  0.39466217  0.66453370  0.35109302    -0.22410
C1105       C  0.39690378  0.71172414  0.35751510     0.20610
C1106       C  0.42711848  0.73872128  0.33253334     0.25640
C1107       C  0.45675094  0.71956158  0.30150754    -0.22350
C1108       C  0.45531165  0.67319072  0.29559415     0.20550
F1109       F  0.48366136  0.65332449  0.26618619    -0.12310
F1110       F  0.42794986  0.60169328  0.31271140    -0.14670
F1111       F  0.42968088  0.78321224  0.34103919    -0.14670
F1112       F  0.37294894  0.73211901  0.38996663    -0.12310
C1113       C  0.29470843  0.68362183  0.39188259     0.25700
C1114       C  0.32792462  0.65388788  0.40908015    -0.22410
C1115       C  0.32063889  0.63827603  0.45354247     0.20610
C1116       C  0.28707755  0.65646794  0.47979385     0.25640
C1117       C  0.26387633  0.69529443  0.46666486    -0.22350
C1118       C  0.26231225  0.70316257  0.41998512     0.20550
F1119       F  0.22541844  0.72111901  0.39979676    -0.12310
F1120       F  0.29272809  0.69279142  0.34739039    -0.14670
F1121       F  0.27847660  0.63662170  0.51967774    -0.14670
F1122       F  0.34212322  0.60241425  0.47165508    -0.12310
C1123       C  0.33055779  0.60720530  0.29778433     0.25700
C1124       C  0.33217529  0.60227064  0.34510447    -0.22410
C1125       C  0.30225712  0.56981863  0.36368701     0.20610
C1126       C  0.27384950  0.54385847  0.33675035     0.25640
C1127       C  0.27971080  0.54320487  0.29042315    -0.22350
C1128       C  0.30945391  0.57469741  0.27134911     0.20550
F1129       F  0.32234438  0.57195033  0.22824665    -0.12310
F1130       F  0.34950357  0.64235553  0.27591513    -0.14670
F1131       F  0.24411161  0.51518831  0.35651538    -0.14670
F1132       F  0.30043923  0.56201879  0.40817617    -0.12310
C1133       C  0.65596959  0.66547179  0.44914883     0.25700
C1134       C  0.66295482  0.66388078  0.40291442    -0.22410
C1135       C  0.69694271  0.69349617  0.38603747     0.20610
C1136       C  0.72683358  0.71459603  0.41650382     0.25640
C1137       C  0.71208507  0.72197533  0.46091359    -0.22350
C1138       C  0.66932632  0.70331879  0.47158956     0.20550
F1139       F  0.64567818  0.71483007  0.50842876    -0.12310
F1140       F  0.64441448  0.62924776  0.47402890    -0.14670
F1141       F  0.77012160  0.72200603  0.40325329    -0.14670
F1142       F  0.70659213  0.69486790  0.34173957    -0.12310
C1143       C  0.60553576  0.67679174  0.29742800     0.25700
C1144       C  0.60463077  0.67026718  0.34466939    -0.22410
C1145       C  0.57654428  0.70000747  0.36895671     0.20610
C1146       C  0.54631396  0.72832035  0.34746318     0.25640
C1147       C  0.54077687  0.72699032  0.30112104    -0.22350
C1148       C  0.57197035  0.70259879  0.27585008     0.20550
F1149       F  0.56908776  0.70242061  0.23053038    -0.12310
F1150       F  0.63881938  0.65975442  0.27166587    -0.14670
F1151       F  0.51969831  0.75513678  0.37260068    -0.14670
F1152       F  0.57778559  0.70252948  0.41414972    -0.12310
C1153       C  0.64592516  0.57863472  0.30692970     0.25700
C1154       C  0.66457111  0.60468674  0.34218381    -0.22410
C1155       C  0.71256514  0.60023148  0.35042781     0.20610
C1156       C  0.74000386  0.57460058  0.32284993     0.25640
C1157       C  0.71965756  0.54506832  0.29278706    -0.22350
C1158       C  0.67286981  0.54864739  0.28340050     0.20550
F1159       F  0.65268774  0.52024103  0.25383001    -0.12310
F1160       F  0.60104067  0.58103234  0.29594431    -0.14670
F1161       F  0.78477938  0.56999714  0.33357969    -0.14670
F1162       F  0.73285261  0.61345971  0.38915916    -0.12310
C1163       C  0.26631480  0.43044434  0.31054264     0.25700
C1164       C  0.28898599  0.46145083  0.28347296    -0.22410
C1165       C  0.33667525  0.46085739  0.28259907     0.20610
C1166       C  0.36123574  0.43322712  0.31157578     0.25640
C1167       C  0.33879711  0.40344145  0.34141448    -0.22350
C1168       C  0.29045502  0.40029807  0.33698498     0.20550
F1169       F  0.26525481  0.36776231  0.35672762    -0.12310
F1170       F  0.22052224  0.43133199  0.31459014    -0.14670
F1171       F  0.40723655  0.43330153  0.30767512    -0.14670
F1172       F  0.35976716  0.48867417  0.25477682    -0.12310
C1173       C  0.31011273  0.36770551  0.43526205     0.25700
C1174       C  0.33630797  0.34454615  0.40341705    -0.22410
C1175       C  0.33099172  0.29726025  0.40109531     0.20610
C1176       C  0.30604195  0.27429141  0.43343303     0.25640
C1177       C  0.28209218  0.29795203  0.46586607    -0.22350
C1178       C  0.28210207  0.34479865  0.46452665     0.20550
F1179       F  0.25752626  0.36852469  0.49436643    -0.12310
F1180       F  0.31096506  0.41309069  0.43741203    -0.14670
F1181       F  0.30796143  0.22898864  0.43464892    -0.14670
F1182       F  0.34944288  0.27243622  0.36816472    -0.12310
C1183       C  0.42407376  0.31496657  0.27049978     0.25700
C1184       C  0.46124983  0.29416856  0.29101634    -0.22410
C1185       C  0.46375729  0.29274289  0.33794637     0.20610
C1186       C  0.43337214  0.31668589  0.36375593     0.25640
C1187       C  0.39818964  0.34191946  0.34353769    -0.22350
C1188       C  0.39131597  0.33587203  0.29650270     0.20550
F1189       F  0.35272142  0.34886868  0.27500356    -0.12310
F1190       F  0.41997256  0.31646480  0.22528180    -0.14670
F1191       F  0.43753156  0.31317906  0.40873862    -0.14670
F1192       F  0.49709607  0.26925179  0.35902830    -0.12310
C1193       C  0.69228634  0.44147908  0.63765638     0.25700
C1194       C  0.66956248  0.40619447  0.66002213    -0.22410
C1195       C  0.68075149  0.39948604  0.70584310     0.20610
C1196       C  0.70238272  0.43300062  0.73018993     0.25640
C1197       C  0.72237022  0.46968368  0.70841575    -0.22350
C1198       C  0.71979196  0.47153743  0.66134189     0.20550
F1199       F  0.74103835  0.50482683  0.63845348    -0.12310
F1200       F  0.68809411  0.44666836  0.59266285    -0.14670
F1201       F  0.69873952  0.43115743  0.77505864    -0.14670
F1202       F  0.66952754  0.36151254  0.72829971    -0.12310
C1203       C  0.58012837  0.37372492  0.70118324     0.25700
C1204       C  0.60479183  0.34988854  0.66868456    -0.22410
C1205       C  0.60418958  0.30217158  0.67314070     0.20610
C1206       C  0.57133826  0.28079051  0.69919235     0.25640
C1207       C  0.54635229  0.30542218  0.72990337    -0.22350
C1208       C  0.55554253  0.35129009  0.73377241     0.20550
F1209       F  0.54120282  0.37470838  0.76952688    -0.12310
F1210       F  0.58404544  0.41865100  0.70531255    -0.14670
F1211       F  0.56524968  0.23594162  0.69538274    -0.14670
F1212       F  0.63642646  0.27555142  0.65541517    -0.12310
C1213       C  0.70761080  0.33943888  0.60024278     0.25700
C1214       C  0.65925360  0.34389092  0.60232393    -0.22410
C1215       C  0.63292496  0.31309772  0.57674452     0.20610
C1216       C  0.65351084  0.27905529  0.55297848     0.25640
C1217       C  0.70073174  0.27868921  0.54679226    -0.22350
C1218       C  0.72752839  0.30925833  0.57099217     0.20550
F1219       F  0.77319807  0.31162783  0.56509042    -0.12310
F1220       F  0.73698025  0.36333007  0.62608309    -0.14670
F1221       F  0.62666651  0.24650959  0.53531474    -0.14670
F1222       F  0.58685006  0.31145202  0.57973866    -0.12310
C1223       C  0.39397227  0.72410872  0.66833989     0.25700
C1224       C  0.39183538  0.67609381  0.67276480    -0.22410
C1225       C  0.41446069  0.66035821  0.71205515     0.20610
C1226       C  0.45052449  0.68431137  0.73121968     0.25640
C1227       C  0.45848272  0.72864311  0.71901758    -0.22350
C1228       C  0.42784802  0.74934205  0.68999128     0.20550
F1229       F  0.43170495  0.79376153  0.68114450    -0.12310
F1230       F  0.36224284  0.74850070  0.64623046    -0.15070
F1231       F  0.47450241  0.66578516  0.76555632    -0.14670
F1232       F  0.39210562  0.63484916  0.74220132    -0.12310
C1233       C  0.35600458  0.70272570  0.57152601     0.25700
C1234       C  0.33779007  0.67522816  0.60596737    -0.22410
C1235       C  0.29261074  0.68684287  0.61816902     0.20610
C1236       C  0.26269463  0.70539826  0.58642736     0.25640
C1237       C  0.27966534  0.72223085  0.54584212    -0.22350
C1238       C  0.32724257  0.72536298  0.54154545     0.20550
F1239       F  0.34564567  0.74759309  0.50632731    -0.12310
F1240       F  0.40107721  0.71312107  0.57085564    -0.14670
F1241       F  0.21738952  0.70321460  0.59417877    -0.14670
F1242       F  0.27660922  0.67822386  0.65979895    -0.12310
C1243       C  0.29426124  0.59298278  0.64283612     0.25700
C1244       C  0.33853976  0.60498711  0.65830314    -0.22410
C1245       C  0.35543145  0.57600539  0.69233426     0.20610
C1246       C  0.32599347  0.55120861  0.71963217     0.25640
C1247       C  0.27941322  0.54748725  0.70925016    -0.22350
C1248       C  0.26426165  0.56815347  0.66950258     0.20550
F1249       F  0.22150046  0.56041677  0.65358685    -0.12310
F1250       F  0.28079208  0.60158124  0.60024185    -0.14670
F1251       F  0.34406653  0.52697736  0.75385419    -0.14670
F1252       F  0.40065624  0.56940537  0.69888531    -0.12310
loop_ 
_geom_bond_atom_site_label_1 
_geom_bond_atom_site_label_2 
_geom_bond_distance 
_geom_bond_site_symmetry_2 
_ccdc_geom_bond_type 
C1           C52   1.598       .  S
C1         C1224   1.610       .  S
C1         C1234   1.580       .  S
C1         C1244   1.594       .  S
C2           C58   1.534       .  S
C2           N20   1.354       .  A
C2           C39   1.468       .  S
N3           N20   1.323       .  A
N3           N25   1.321       .  A
N3          Co40   2.084       .  S
C4           N29   1.346       .  A
C4           C42   1.477       .  S
C4           H49   1.081       .  S
H5           C46   1.082       .  S
C6           N30   1.351       .  A
C6           C10   1.482       .  S
C6           H35   1.081       .  S
Co7          N25   2.101       .  S
Co7          N15   2.078       .  S
Co7          N47   2.112       .  S
Co7          N23   2.096       .  S
Co7         Cl51   2.476       .  S
N8           C46   1.348       .  A
N8           N15   1.319       .  A
N8           Co9   2.124       .  S
Co9          N12   2.099       .  S
Co9          N29   2.108       .  S
Co9          N16   2.106       .  S
Co9         Cl51   2.458       .  S
C10          C60   1.563       .  S
C10          N48   1.351       .  A
N11          N18   1.317       .  A
N11          N41   1.334       .  A
N11         Co44   2.129       .  S
N12          N30   1.323       .  A
N12          N48   1.323       .  A
N13          C42   1.358       .  A
N13          N23   1.327       .  A
H14          C39   1.082       .  S
N15          N36   1.326       .  A
N16          N34   1.322       .  A
N16          N21   1.328       .  A
C17          C55   1.567       .  S
C17          N21   1.355       .  A
C17          C45   1.482       .  S
N18          C33   1.346       .  A
N18         Co40   2.130       .  S
C19          N47   1.352       .  A
C19          C22   1.485       .  S
C19          H53   1.079       .  S
C22          C57   1.575       .  S
C22          N43   1.357       .  A
N23          N29   1.319       .  A
N24          C50   1.352       .  A
N24          N26   1.321       .  A
N24         Co40   2.133       .  S
N25          C39   1.344       .  A
N26          N54   1.328       .  A
N26         Co44   2.112       .  S
H27          C50   1.079       .  S
H28          C45   1.081       .  S
N30         Co44   2.126       .  S
N31          N43   1.321       .  A
N31          N47   1.318       .  A
N31         Co40   2.104       .  S
C32          C56   1.565       .  S
C32          N36   1.351       .  A
C32          C46   1.486       .  S
C33          C52   1.496       .  S
C33          H37   1.074       .  S
N34          C45   1.348       .  A
N34         Co44   2.123       .  S
C38          C61   1.579       .  S
C38          N54   1.359       .  A
C38          C50   1.483       .  S
Co40        Cl51   2.463       .  S
N41          C52   1.367       .  A
C42          C59   1.560       .  S
Co44        Cl51   2.487       .  S
C55        C1194   1.552       .  S
C55        C1204   1.565       .  S
C55        C1214   1.560       .  S
C56        C1167   1.563       .  S
C56        C1174   1.543       .  S
C56        C1187   1.559       .  S
C57        C1134   1.548       .  S
C57        C1144   1.564       .  S
C57        C1154   1.568       .  S
C58        C1104   1.571       .  S
C58        C1114   1.560       .  S
C58        C1124   1.560       .  S
C59        C1074   1.543       .  S
C59        C1087   1.551       .  S
C59        C1094   1.566       .  S
C60        C1044   1.562       .  S
C60        C1054   1.548       .  S
C60        C1064   1.572       .  S
C61        C1017   1.568       .  S
C61        C1024   1.570       .  S
C61        C1034   1.560       .  S
C62          C63   1.376       .  D
C62         C987   1.486       .  S
C62        C1004   1.482   1_554  S
C63         C974   1.523   1_554  S
C63         C994   1.532       .  S
C64          C65   1.380       .  D
C64         C944   1.536       .  S
C64         C964   1.507   1_545  S
C65         C934   1.504   1_545  S
C65         C954   1.475       .  S
C66          C67   1.362   1_455  D
C66         C904   1.475   1_455  S
C66         C924   1.489       .  S
C67         C897   1.486   1_655  S
C67         C914   1.499       .  S
C68          C69   1.368       .  D
C68        C1097   1.498       .  S
C68        C1184   1.485       .  S
C69         C874   1.476       .  S
C69         C884   1.497       .  S
C70          C71   1.362       .  D
C70        C1067   1.483       .  S
C70        C1177   1.481       .  S
C71         C854   1.501       .  S
C71         C864   1.492       .  S
C72          C73   1.364       .  D
C72        C1127   1.488       .  S
C72        C1164   1.487       .  S
C73         C834   1.484       .  S
C73         C844   1.484       .  S
C74          C75   1.384       .  D
C74         C814   1.495       .  S
C74         C824   1.532   1_554  S
C75         C794   1.504       .  S
C75         C804   1.488   1_554  S
C76          C77   1.354       .  D
C76         C757   1.482       .  S
C76         C767   1.479   1_554  S
C77         C774   1.480       .  S
C77         C784   1.474   1_554  S
C78          C79   1.363       .  D
C78         C737   1.516       .  S
C78         C744   1.489   1_655  S
C79         C717   1.505   1_655  S
C79         C724   1.480       .  S
C80          C81   1.392       .  D
C80        C1077   1.535       .  S
C80        C1157   1.492       .  S
C81         C694   1.502       .  S
C81         C707   1.532       .  S
C82          C83   1.382       .  D
C82        C1057   1.480       .  S
C82        C1247   1.502       .  S
C83         C674   1.517       .  S
C83         C687   1.547       .  S
C84          C85   1.578       .  S
C84         C644   1.569       .  S
C84         C657   1.574       .  S
C84         C664   1.572       .  S
C85         N103   1.362       .  A
C85         C122   1.484       .  S
N86         N103   1.332       .  A
N86         N108   1.316       .  A
N86        Co123   2.109   1_556  S
C87         N112   1.355       .  A
C87         C125   1.481       .  S
C87         H132   1.069       .  S
H88         C129   1.082       .  S
C89         N113   1.343       .  A
C89          C93   1.481       .  S
C89         H118   1.080       .  S
Co90        N108   2.111       .  S
Co90         N98   2.091       .  S
Co90        N130   2.137   1_655  S
Co90        N106   2.133   1_655  S
Co90       Cl134   2.473   1_556  S
N91         C129   1.339       .  A
N91          N98   1.322       .  A
N91         Co92   2.111   1_556  S
Co92         N95   2.098       .  S
Co92        N112   2.122   1_654  S
Co92         N99   2.098   1_655  S
Co92       Cl134   2.470       .  S
C93         C138   1.568       .  S
C93         N131   1.357       .  A
N94         N101   1.322       .  A
N94         N124   1.330       .  A
N94        Co127   2.100       .  S
N95         N113   1.322       .  A
N95         N131   1.330       .  A
N96         C125   1.364       .  A
N96         N106   1.329       .  A
H97         C122   1.077       .  S
N98         N119   1.331       .  A
N99         N117   1.319       .  A
N99         N104   1.321       .  A
C100        C146   1.561       .  S
C100        N104   1.355       .  A
C100        C128   1.478       .  S
N101        C116   1.347       .  A
N101       Co123   2.135       .  S
C102        N130   1.354       .  A
C102        C105   1.487       .  S
C102        H136   1.077       .  S
C105        C140   1.595       .  S
C105        N126   1.366       .  A
N106        N112   1.320       .  A
N107        C133   1.343       .  A
N107        N109   1.320       .  A
N107       Co123   2.103   1_455  S
N108        C122   1.343       .  A
N109        N137   1.329       .  A
N109       Co127   2.109   1_455  S
H110        C133   1.080       .  S
H111        C128   1.080       .  S
N113       Co127   2.118       .  S
N114        N126   1.334       .  A
N114        N130   1.321       .  A
N114       Co123   2.144   1_456  S
C115        C141   1.546       .  S
C115        N119   1.355       .  A
C115        C129   1.474       .  S
C116        C135   1.486       .  S
C116        H120   1.080       .  S
N117        C128   1.345       .  A
N117       Co127   2.092   1_455  S
C121        C145   1.561       .  S
C121        N137   1.359       .  A
C121        C133   1.475       .  S
Co123      Cl134   2.469       .  S
N124        C135   1.355       .  A
C125        C139   1.581       .  S
Co127      Cl134   2.473       .  S
C135        C142   1.571       .  S
C138        C704   1.542       .  S
C138        C777   1.564       .  S
C138        C917   1.576       .  S
C139        C684   1.564       .  S
C139        C747   1.563       .  S
C139        C977   1.572       .  S
C140        C634   1.566       .  S
C140        C677   1.572       .  S
C140        C807   1.572       .  S
C141        C624   1.588       .  S
C141        C734   1.556       .  S
C141        C787   1.568       .  S
C142        C604   1.548       .  S
C142        C617   1.564       .  S
C142        C697   1.574       .  S
C143        C144   1.366       .  D
C143       C1027   1.486       .  S
C143       C1197   1.495       .  S
C144        C627   1.483       .  S
C144        C667   1.490       .  S
C145        C597   1.570       .  S
C145        C797   1.554       .  S
C145        C847   1.559       .  S
C146        C837   1.551       .  S
C146        C894   1.565       .  S
C146        C997   1.548       .  S
C147        C148   1.363       .  D
C147        C554   1.487   1_545  S
C147        C567   1.481       .  S
C148        C574   1.493       .  S
C148        C587   1.486   1_545  S
C149        C150   1.367       .  D
C149       C1107   1.499       .  S
C149       C1147   1.487       .  S
C150        C534   1.497       .  S
C150        C544   1.508       .  S
C151        C152   1.373       .  D
C151        C514   1.519       .  S
C151        C524   1.517       .  S
C152       C1047   1.481       .  S
C152       C1207   1.484       .  S
C153        C204   1.573       .  S
C153        C504   1.558       .  S
C153        C527   1.553       .  S
C153        C764   1.562       .  S
C154        C209   1.581       .  S
C154        N172   1.364       .  A
C154        C191   1.485       .  S
N155        N172   1.334       .  A
N155        N177   1.324       .  A
N155       Co192   2.137       .  S
C156        N181   1.347       .  A
C156        C194   1.483       .  S
C156        H201   1.076       .  S
H157        C198   1.081       .  S
C158        N182   1.347       .  A
C158        C162   1.482       .  S
C158        H187   1.081       .  S
Co159       N177   2.134   1_554  S
Co159       N167   2.125       .  S
Co159       N199   2.127   1_544  S
Co159       N175   2.161   1_545  S
Co159      Cl203   2.477       .  S
N160        C198   1.346       .  A
N160        N167   1.319       .  A
N160       Co161   2.107       .  S
Co161       N164   2.107       .  S
Co161       N181   2.125   1_545  S
Co161       N168   2.099   1_545  S
Co161      Cl203   2.465       .  S
C162        C215   1.571       .  S
C162        N200   1.357       .  A
N163        N170   1.316       .  A
N163        N193   1.332       .  A
N163       Co196   2.101   1_556  S
N164        N182   1.318       .  A
N164        N200   1.329       .  A
N165        C194   1.374       .  A
N165        N175   1.339       .  A
H166        C191   1.079       .  S
N167        N188   1.332       .  A
N168        N186   1.318       .  A
N168        N173   1.324       .  A
C169        C207   1.542       .  S
C169        N173   1.358       .  A
C169        C197   1.474       .  S
N170        C185   1.331       .  A
N170       Co192   2.085       .  S
C171        N199   1.343       .  A
C171        C174   1.487       .  S
C171        H205   1.080       .  S
C174        C208   1.577       .  S
C174        N195   1.354       .  A
N175        N181   1.321       .  A
N176        C202   1.345       .  A
N176        N178   1.321       .  A
N176       Co192   2.104   1_565  S
N177        C191   1.347       .  A
N178        N206   1.328       .  A
N178       Co196   2.118   1_566  S
H179        C202   1.079       .  S
H180        C197   1.081       .  S
N182       Co196   2.115       .  S
N183        N195   1.331       .  A
N183        N199   1.322       .  A
N183       Co192   2.091   1_565  S
C184        C214   1.572       .  S
C184        N188   1.363       .  A
C184        C198   1.477       .  S
C185        C204   1.478       .  S
C185        H189   1.079       .  S
N186        C197   1.351       .  A
N186       Co196   2.108   1_565  S
C190        C210   1.562       .  S
C190        N206   1.357       .  A
C190        C202   1.479       .  S
Co192      Cl203   2.472   1_556  S
N193        C204   1.362       .  A
C194        C211   1.597       .  S
Co196      Cl203   2.471       .  S
C207        C484   1.584       .  S
C207        C494   1.568       .  S
C207        C547   1.557       .  S
C208        C477   1.567       .  S
C208        C584   1.560       .  S
C208        C827   1.544       .  S
C209        C517   1.561       .  S
C209        C577   1.573       .  S
C209       C1007   1.565       .  S
C210        C444   1.558       .  S
C210        C457   1.557       .  S
C210        C464   1.573       .  S
C211        C537   1.580       .  S
C211        C817   1.565       .  S
C211        C937   1.569       .  S
C212        C213   1.371       .  D
C212       C1014   1.498       .  S
C212       C1227   1.480       .  S
C213        C467   1.486       .  S
C213        C474   1.496       .  S
C214        C887   1.559       .  S
C214        C957   1.564       .  S
C214        C984   1.570       .  S
C215        C437   1.546       .  S
C215        C754   1.544       .  S
C215        C877   1.558       .  S
C216        C217   1.368       .  D
C216        C594   1.491       .  S
C216        C614   1.475   1_455  S
C217        C414   1.511       .  S
C217        C424   1.543   1_455  S
C218        C219   1.353       .  D
C218        C397   1.475   1_545  S
C218        C404   1.489       .  S
C219        C434   1.475       .  S
C219        C497   1.485   1_545  S
C220        C221   1.364       .  D
C220       C1084   1.459       .  S
C220       C1217   1.494       .  S
C221        C374   1.533       .  S
C221        C387   1.495       .  S
C222        C223   1.376       .  D
C222        C357   1.500       .  S
C222        C364   1.502       .  S
C223       C1117   1.534       .  S
C223       C1237   1.513       .  S
C224        C225   1.569       .  S
C224        C377   1.538       .  S
C224        C407   1.560       .  S
C224        C907   1.554       .  S
C225        N243   1.355       .  A
C225        C262   1.484       .  S
N226        N243   1.328       .  A
N226        N248   1.320       .  A
N226       Co263   2.079       .  S
C227        N252   1.353       .  A
C227        C265   1.476       .  S
C227        H272   1.081       .  S
H228        C269   1.078       .  S
C229        N253   1.345       .  A
C229        C233   1.472       .  S
C229        H258   1.082       .  S
Co230       N248   2.114       .  S
Co230       N238   2.135       .  S
Co230       N270   2.105   1_545  S
Co230       N246   2.117   1_545  S
Co230      Cl274   2.470       .  S
N231        C269   1.347       .  A
N231        N238   1.322       .  A
N231       Co232   2.121   1_655  S
Co232       N235   2.079       .  S
Co232       N252   2.108   1_445  S
Co232       N239   2.133   1_545  S
Co232      Cl274   2.466   1_455  S
C233        C286   1.539       .  S
C233        N271   1.353       .  A
N234        N241   1.319       .  A
N234        N264   1.329       .  A
N234       Co267   2.111       .  S
N235        N253   1.317       .  A
N235        N271   1.327       .  A
N236        C265   1.359       .  A
N236        N246   1.326       .  A
H237        C262   1.078       .  S
N238        N259   1.333       .  A
N239        N257   1.322       .  A
N239        N244   1.331       .  A
C240        C280   1.576       .  S
C240        N244   1.362       .  A
C240        C268   1.481       .  S
N241        C256   1.343       .  A
N241       Co263   2.096   1_455  S
C242        N270   1.351       .  A
C242        C245   1.478       .  S
C242        H276   1.082       .  S
C245        C278   1.549       .  S
C245        N266   1.351       .  A
N246        N252   1.319       .  A
N247        C273   1.350       .  A
N247        N249   1.320       .  A
N247       Co263   2.109   1_465  S
N248        C262   1.338       .  A
N249        N277   1.331       .  A
N249       Co267   2.127   1_565  S
H250        C273   1.077       .  S
H251        C268   1.082       .  S
N253       Co267   2.103       .  S
N254        N266   1.319       .  A
N254        N270   1.323       .  A
N254       Co263   2.103   1_565  S
C255        C281   1.572       .  S
C255        N259   1.366       .  A
C255        C269   1.484       .  S
C256        C275   1.474       .  S
C256        H260   1.082       .  S
N257        C268   1.347       .  A
N257       Co267   2.119   1_565  S
C261        C279   1.555       .  S
C261        N277   1.363       .  A
C261        C273   1.471       .  S
Co263      Cl274   2.466       .  S
N264        C275   1.360       .  A
C265        C282   1.571       .  S
Co267      Cl274   2.462   1_455  S
C275        C285   1.558       .  S
C278        C344   1.553       .  S
C278        C394   1.552       .  S
C278        C427   1.560       .  S
C279        C354   1.561       .  S
C279        C417   1.576       .  S
C279        C967   1.562       .  S
C280        C334   1.570       .  S
C280        C367   1.564       .  S
C280        C557   1.560       .  S
C281        C324   1.549       .  S
C281        C384   1.560       .  S
C281        C727   1.570       .  S
C282        C294   1.560       .  S
C282        C304   1.568       .  S
C282        C314   1.570       .  S
C283        C284   1.371       .  D
C283       C1037   1.509       .  S
C283       C1137   1.515       .  S
C284        C317   1.483       .  S
C284        C347   1.489       .  S
C285        C867   1.567       .  S
C285        C927   1.556       .  S
C285        C947   1.548       .  S
C286        C564   1.556       .  S
C286        C714   1.559       .  S
C286        C857   1.552       .  S
C287        C288   1.372       .  D
C287        C637   1.489       .  S
C287        C654   1.498   1_455  S
C288        C297   1.497   1_455  S
C288        C337   1.492       .  S
C289        C290   1.367       .  D
C289        C447   1.496   1_545  S
C289        C507   1.477       .  S
C290        C307   1.494   1_545  S
C290        C327   1.513       .  S
C291        C292   1.377       .  D
C291        C607   1.504       .  S
C291        C647   1.492   1_554  S
C292        C454   1.501   1_554  S
C292        C487   1.486       .  S
C293        C294   1.412       .  A
C293        C298   1.393       .  A
C293        F300   1.358       .  S
C294        C295   1.427       .  A
C295        C296   1.396       .  A
C295        F302   1.357       .  S
C296        C297   1.402       .  A
C296        F301   1.356       .  S
C297        C298   1.413       .  A
C298        F299   1.358       .  S
C303        C304   1.425       .  A
C303        C308   1.394       .  A
C303        F310   1.352       .  S
C304        C305   1.426       .  A
C305        C306   1.403       .  A
C305        F312   1.357       .  S
C306        C307   1.397       .  A
C306        F311   1.359       .  S
C307        C308   1.400       .  A
C308        F309   1.359       .  S
C313        C314   1.433       .  A
C313        C318   1.392       .  A
C313        F320   1.356       .  S
C314        C315   1.424       .  A
C315        C316   1.388       .  A
C315        F322   1.359       .  S
C316        C317   1.399       .  A
C316        F321   1.359       .  S
C317        C318   1.395       .  A
C318        F319   1.358       .  S
C323        C324   1.410       .  A
C323        C328   1.368       .  A
C323        F330   1.348       .  S
C324        C325   1.428       .  A
C325        C326   1.406       .  A
C325        F332   1.358       .  S
C326        C327   1.416       .  A
C326        F331   1.352       .  S
C327        C328   1.401       .  A
C328        F329   1.351       .  S
C333        C334   1.419       .  A
C333        C338   1.392       .  A
C333        F340   1.357       .  S
C334        C335   1.430       .  A
C335        C336   1.398       .  A
C335        F342   1.357       .  S
C336        C337   1.400       .  A
C336        F341   1.357       .  S
C337        C338   1.405       .  A
C338        F339   1.359       .  S
C343        C344   1.410       .  A
C343        C348   1.394       .  A
C343        F350   1.357       .  S
C344        C345   1.424       .  A
C345        C346   1.397       .  A
C345        F352   1.356       .  S
C346        C347   1.402       .  A
C346        F351   1.357       .  S
C347        C348   1.409       .  A
C348        F349   1.358       .  S
C353        C354   1.427       .  A
C353        C358   1.407       .  A
C353        F360   1.357       .  S
C354        C355   1.415       .  A
C355        C356   1.382       .  A
C355        F362   1.355       .  S
C356        C357   1.402       .  A
C356        F361   1.350       .  S
C357        C358   1.409       .  A
C358        F359   1.358       .  S
C363        C364   1.399       .  A
C363        C368   1.406       .  A
C363        F370   1.357       .  S
C364        C365   1.399       .  A
C365        C366   1.391       .  A
C365        F372   1.357       .  S
C366        C367   1.416       .  A
C366        F371   1.359       .  S
C367        C368   1.433       .  A
C368        F369   1.353       .  S
C373        C374   1.410       .  A
C373        C378   1.360       .  A
C373        F380   1.350       .  S
C374        C375   1.432       .  A
C375        C376   1.414       .  A
C375        F382   1.347       .  S
C376        C377   1.420       .  A
C376        F381   1.358       .  S
C377        C378   1.387       .  A
C378        F379   1.358       .  S
C383        C384   1.427       .  A
C383        C388   1.397       .  A
C383        F390   1.356       .  S
C384        C385   1.416       .  A
C385        C386   1.397       .  A
C385        F392   1.359       .  S
C386        C387   1.409       .  A
C386        F391   1.359       .  S
C387        C388   1.397       .  A
C388        F389   1.358       .  S
C393        C394   1.418       .  A
C393        C398   1.391       .  A
C393        F400   1.357       .  S
C394        C395   1.424       .  A
C395        C396   1.395       .  A
C395        F402   1.356       .  S
C396        C397   1.399       .  A
C396        F401   1.359       .  S
C397        C398   1.396       .  A
C398        F399   1.356       .  S
C403        C404   1.400       .  A
C403        C408   1.399       .  A
C403        F410   1.357       .  S
C404        C405   1.400       .  A
C405        C406   1.388       .  A
C405        F412   1.353       .  S
C406        C407   1.415       .  A
C406        F411   1.354       .  S
C407        C408   1.425       .  A
C408        F409   1.355       .  S
C413        C414   1.405       .  A
C413        C418   1.411       .  A
C413        F420   1.357       .  S
C414        C415   1.400       .  A
C415        C416   1.394       .  A
C415        F422   1.360       .  S
C416        C417   1.422       .  A
C416        F421   1.346       .  S
C417        C418   1.431       .  A
C418        F419   1.356       .  S
C423        C424   1.406       .  A
C423        C428   1.380       .  A
C423        F430   1.356   1_655  S
C424        C425   1.426       .  A
C425        C426   1.415       .  A
C425        F432   1.349       .  S
C426        C427   1.420       .  A
C426        F431   1.356       .  S
C427        C428   1.403       .  A
C428        F429   1.353       .  S
C433        C434   1.397       .  A
C433        C438   1.379       .  A
C433        F440   1.352       .  S
C434        C435   1.395       .  A
C435        C436   1.390       .  A
C435        F442   1.357       .  S
C436        C437   1.430       .  A
C436        F441   1.355       .  S
C437        C438   1.415       .  A
C438        F439   1.354       .  S
C443        C444   1.418       .  A
C443        C448   1.386       .  A
C443        F450   1.358       .  S
C444        C445   1.419       .  A
C445        C446   1.396       .  A
C445        F452   1.354       .  S
C446        C447   1.407       .  A
C446        F451   1.358   1_565  S
C447        C448   1.403       .  A
C448        F449   1.346       .  S
C453        C454   1.400       .  A
C453        C458   1.394       .  A
C453        F460   1.349       .  S
C454        C455   1.410       .  A
C455        C456   1.395       .  A
C455        F462   1.352       .  S
C456        C457   1.412       .  A
C456        F461   1.359       .  S
C457        C458   1.428       .  A
C458        F459   1.355       .  S
C463        C464   1.426       .  A
C463        C468   1.399       .  A
C463        F470   1.359       .  S
C464        C465   1.424       .  A
C465        C466   1.390       .  A
C465        F472   1.353       .  S
C466        C467   1.399       .  A
C466        F471   1.356       .  S
C467        C468   1.401       .  A
C468        F469   1.355       .  S
C473        C474   1.403       .  A
C473        C478   1.394       .  A
C473        F480   1.353       .  S
C474        C475   1.399       .  A
C475        C476   1.402       .  A
C475        F482   1.357       .  S
C476        C477   1.432       .  A
C476        F481   1.355       .  S
C477        C478   1.417       .  A
C478        F479   1.359       .  S
C483        C484   1.419       .  A
C483        C488   1.392       .  A
C483        F490   1.354       .  S
C484        C485   1.435       .  A
C485        C486   1.401       .  A
C485        F492   1.345       .  S
C486        C487   1.394       .  A
C486        F491   1.358       .  S
C487        C488   1.400       .  A
C488        F489   1.358       .  S
C493        C494   1.425       .  A
C493        C498   1.402       .  A
C493        F500   1.357       .  S
C494        C495   1.415       .  A
C495        C496   1.394       .  A
C495        F502   1.357       .  S
C496        C497   1.398       .  A
C496        F501   1.357       .  S
C497        C498   1.402       .  A
C498        F499   1.358       .  S
C503        C504   1.426       .  A
C503        C508   1.400       .  A
C503        F510   1.356       .  S
C504        C505   1.416       .  A
C505        C506   1.388       .  A
C505        F512   1.352       .  S
C506        C507   1.399       .  A
C506        F511   1.359       .  S
C507        C508   1.399       .  A
C508        F509   1.357       .  S
C513        C514   1.407       .  A
C513        C518   1.390       .  A
C513        F520   1.343       .  S
C514        C515   1.414       .  A
C515        C516   1.409       .  A
C515        F522   1.358       .  S
C516        C517   1.418       .  A
C516        F521   1.358       .  S
C517        C518   1.422       .  A
C518        F519   1.355       .  S
C523        C524   1.405       .  A
C523        C528   1.373       .  A
C523        F530   1.356       .  S
C524        C525   1.423       .  A
C525        C526   1.413       .  A
C525        F532   1.353       .  S
C526        C527   1.425       .  A
C526        F531   1.357       .  S
C527        C528   1.399       .  A
C528        F529   1.355       .  S
C533        C534   1.401       .  A
C533        C538   1.401       .  A
C533        F540   1.357       .  S
C534        C535   1.404       .  A
C535        C536   1.397       .  A
C535        F542   1.358       .  S
C536        C537   1.422       .  A
C536        F541   1.358       .  S
C537        C538   1.435       .  A
C538        F539   1.355       .  S
C543        C544   1.410       .  A
C543        C548   1.407       .  A
C543        F550   1.355       .  S
C544        C545   1.406       .  A
C545        C546   1.379       .  A
C545        F552   1.357       .  S
C546        C547   1.418       .  A
C546        F551   1.359       .  S
C547        C548   1.422       .  A
C548        F549   1.358       .  S
C553        C554   1.397       .  A
C553        C558   1.395       .  A
C553        F560   1.357       .  S
C554        C555   1.402       .  A
C555        C556   1.385       .  A
C555        F562   1.355       .  S
C556        C557   1.415       .  A
C556        F561   1.352       .  S
C557        C558   1.433       .  A
C558        F559   1.356       .  S
C563        C564   1.417       .  A
C563        C568   1.393       .  A
C563        F570   1.358       .  S
C564        C565   1.423       .  A
C565        C566   1.398       .  A
C565        F572   1.357       .  S
C566        C567   1.397       .  A
C566        F571   1.358       .  S
C567        C568   1.404       .  A
C568        F569   1.359       .  S
C573        C574   1.407       .  A
C573        C578   1.398       .  A
C573        F580   1.358       .  S
C574        C575   1.399       .  A
C575        C576   1.397       .  A
C575        F582   1.356       .  S
C576        C577   1.431       .  A
C576        F581   1.357       .  S
C577        C578   1.416       .  A
C578        F579   1.355       .  S
C583        C584   1.424       .  A
C583        C588   1.400       .  A
C583        F590   1.357       .  S
C584        C585   1.415       .  A
C585        C586   1.390       .  A
C585        F592   1.353       .  S
C586        C587   1.401       .  A
C586        F591   1.359       .  S
C587        C588   1.401       .  A
C588        F589   1.357       .  S
C593        C594   1.397       .  A
C593        C598   1.388       .  A
C593        F600   1.354       .  S
C594        C595   1.400       .  A
C595        C596   1.401       .  A
C595        F602   1.357       .  S
C596        C597   1.431       .  A
C596        F601   1.354       .  S
C597        C598   1.422       .  A
C598        F599   1.353       .  S
C603        C604   1.417       .  A
C603        C608   1.385       .  A
C603        F610   1.358       .  S
C604        C605   1.412       .  A
C605        C606   1.394       .  A
C605        F612   1.359       .  S
C606        C607   1.413       .  A
C606        F611   1.351       .  S
C607        C608   1.404       .  A
C608        F609   1.342       .  S
C613        C614   1.394       .  A
C613        C618   1.388       .  A
C613        F620   1.355       .  S
C614        C615   1.399       .  A
C615        C616   1.398       .  A
C615        F622   1.358       .  S
C616        C617   1.429       .  A
C616        F621   1.353       .  S
C617        C618   1.425       .  A
C618        F619   1.353       .  S
C623        C624   1.438       .  A
C623        C628   1.396       .  A
C623        F630   1.348       .  S
C624        C625   1.426       .  A
C625        C626   1.396       .  A
C625        F632   1.350       .  S
C626        C627   1.397       .  A
C626        F631   1.359       .  S
C627        C628   1.390       .  A
C628        F629   1.357       .  S
C633        C634   1.434       .  A
C633        C638   1.398       .  A
C633        F640   1.356       .  S
C634        C635   1.418       .  A
C635        C636   1.391       .  A
C635        F642   1.352       .  S
C636        C637   1.402       .  A
C636        F641   1.359       .  S
C637        C638   1.398       .  A
C638        F639   1.357       .  S
C643        C644   1.429       .  A
C643        C648   1.396       .  A
C643        F650   1.349       .  S
C644        C645   1.421       .  A
C645        C646   1.403       .  A
C645        F652   1.358       .  S
C646        C647   1.400       .  A
C646        F651   1.357       .  S
C647        C648   1.400       .  A
C648        F649   1.358       .  S
C653        C654   1.408       .  A
C653        C658   1.389       .  A
C653        F660   1.358       .  S
C654        C655   1.399       .  A
C655        C656   1.399       .  A
C655        F662   1.356       .  S
C656        C657   1.434       .  A
C656        F661   1.357       .  S
C657        C658   1.417       .  A
C658        F659   1.352       .  S
C663        C664   1.417       .  A
C663        C668   1.388       .  A
C663        F670   1.360       .  S
C664        C665   1.428       .  A
C665        C666   1.401       .  A
C665        F672   1.356       .  S
C666        C667   1.400       .  A
C666        F671   1.357       .  S
C667        C668   1.404       .  A
C668        F669   1.353       .  S
C673        C674   1.416       .  A
C673        C678   1.410       .  A
C673        F680   1.358       .  S
C674        C675   1.401       .  A
C675        C676   1.397       .  A
C675        F682   1.350       .  S
C676        C677   1.431       .  A
C676        F681   1.356       .  S
C677        C678   1.417       .  A
C678        F679   1.358       .  S
C683        C684   1.403       .  A
C683        C688   1.381       .  A
C683        F690   1.355       .  S
C684        C685   1.421       .  A
C685        C686   1.414       .  A
C685        F692   1.356       .  S
C686        C687   1.423       .  A
C686        F691   1.349       .  S
C687        C688   1.407       .  A
C688        F689   1.355       .  S
C693        C694   1.397       .  A
C693        C698   1.390       .  A
C693        F700   1.357       .  S
C694        C695   1.406       .  A
C695        C696   1.402       .  A
C695        F702   1.358       .  S
C696        C697   1.421       .  A
C696        F701   1.357       .  S
C697        C698   1.435       .  A
C698        F699   1.355       .  S
C703        C704   1.419       .  A
C703        C708   1.404       .  A
C703        F710   1.357       .  S
C704        C705   1.416       .  A
C705        C706   1.386       .  A
C705        F712   1.359       .  S
C706        C707   1.417       .  A
C706        F711   1.355       .  S
C707        C708   1.396       .  A
C708        F709   1.354       .  S
C713        C714   1.415       .  A
C713        C718   1.385       .  A
C713        F720   1.350       .  S
C714        C715   1.426       .  A
C715        C716   1.405       .  A
C715        F722   1.356       .  S
C716        C717   1.408       .  A
C716        F721   1.355       .  S
C717        C718   1.404       .  A
C718        F719   1.358   1_455  S
C723        C724   1.395       .  A
C723        C728   1.385       .  A
C723        F730   1.359       .  S
C724        C725   1.399       .  A
C725        C726   1.400       .  A
C725        F732   1.357       .  S
C726        C727   1.431       .  A
C726        F731   1.355       .  S
C727        C728   1.424       .  A
C728        F729   1.351       .  S
C733        C734   1.416       .  A
C733        C738   1.374       .  A
C733        F740   1.349       .  S
C734        C735   1.425       .  A
C735        C736   1.408       .  A
C735        F742   1.358       .  S
C736        C737   1.415       .  A
C736        F741   1.353       .  S
C737        C738   1.405       .  A
C738        F739   1.353       .  S
C743        C744   1.401       .  A
C743        C748   1.392       .  A
C743        F750   1.359       .  S
C744        C745   1.398       .  A
C745        C746   1.400       .  A
C745        F752   1.359       .  S
C746        C747   1.429       .  A
C746        F751   1.354       .  S
C747        C748   1.420       .  A
C748        F749   1.355       .  S
C753        C754   1.428       .  A
C753        C758   1.392       .  A
C753        F760   1.357       .  S
C754        C755   1.410       .  A
C755        C756   1.384       .  A
C755        F762   1.359       .  S
C756        C757   1.407       .  A
C756        F761   1.355       .  S
C757        C758   1.398       .  A
C758        F759   1.357       .  S
C763        C764   1.420       .  A
C763        C768   1.395       .  A
C763        F770   1.358       .  S
C764        C765   1.426       .  A
C765        C766   1.395       .  A
C765        F772   1.356       .  S
C766        C767   1.395       .  A
C766        F771   1.359       .  S
C767        C768   1.402       .  A
C768        F769   1.358       .  S
C773        C774   1.391       .  A
C773        C778   1.391       .  A
C773        F780   1.359       .  S
C774        C775   1.403       .  A
C775        C776   1.393       .  A
C775        F782   1.357       .  S
C776        C777   1.419       .  A
C776        F781   1.359       .  S
C777        C778   1.435       .  A
C778        F779   1.353       .  S
C783        C784   1.401       .  A
C783        C788   1.387       .  A
C783        F790   1.357       .  S
C784        C785   1.393       .  A
C785        C786   1.396       .  A
C785        F792   1.359       .  S
C786        C787   1.431       .  A
C786        F791   1.356       .  S
C787        C788   1.415       .  A
C788        F789   1.360       .  S
C793        C794   1.401       .  A
C793        C798   1.384       .  A
C793        F800   1.345       .  S
C794        C795   1.413       .  A
C795        C796   1.397       .  A
C795        F802   1.357       .  S
C796        C797   1.416       .  A
C796        F801   1.358       .  S
C797        C798   1.418       .  A
C798        F799   1.358       .  S
C803        C804   1.397       .  A
C803        C808   1.402       .  A
C803        F810   1.358       .  S
C804        C805   1.403       .  A
C805        C806   1.394       .  A
C805        F812   1.358       .  S
C806        C807   1.423       .  A
C806        F811   1.358       .  S
C807        C808   1.435       .  A
C808        F809   1.354       .  S
C813        C814   1.411       .  A
C813        C818   1.411       .  A
C813        F820   1.358       .  S
C814        C815   1.398       .  A
C815        C816   1.386       .  A
C815        F822   1.359       .  S
C816        C817   1.425       .  A
C816        F821   1.353       .  S
C817        C818   1.424       .  A
C818        F819   1.358       .  S
C823        C824   1.416       .  A
C823        C828   1.363       .  A
C823        F830   1.350   1_556  S
C824        C825   1.419       .  A
C825        C826   1.413       .  A
C825        F832   1.353       .  S
C826        C827   1.424       .  A
C826        F831   1.357       .  S
C827        C828   1.394       .  A
C828        F829   1.360       .  S
C833        C834   1.400       .  A
C833        C838   1.385       .  A
C833        F840   1.355       .  S
C834        C835   1.401       .  A
C835        C836   1.402       .  A
C835        F842   1.358       .  S
C836        C837   1.423       .  A
C836        F841   1.357       .  S
C837        C838   1.416       .  A
C838        F839   1.359       .  S
C843        C844   1.404       .  A
C843        C848   1.395       .  A
C843        F850   1.352       .  S
C844        C845   1.393       .  A
C845        C846   1.385       .  A
C845        F852   1.354       .  S
C846        C847   1.427       .  A
C846        F851   1.354       .  S
C847        C848   1.419       .  A
C848        F849   1.359       .  S
C853        C854   1.409       .  A
C853        C858   1.402       .  A
C853        F860   1.355       .  S
C854        C855   1.406       .  A
C855        C856   1.382       .  A
C855        F862   1.358       .  S
C856        C857   1.417       .  A
C856        F861   1.353       .  S
C857        C858   1.421       .  A
C858        F859   1.357       .  S
C863        C864   1.401       .  A
C863        C868   1.399       .  A
C863        F870   1.357       .  S
C864        C865   1.399       .  A
C865        C866   1.389       .  A
C865        F872   1.359       .  S
C866        C867   1.422       .  A
C866        F871   1.354       .  S
C867        C868   1.429       .  A
C868        F869   1.356       .  S
C873        C874   1.392       .  A
C873        C878   1.390       .  A
C873        F880   1.358       .  S
C874        C875   1.402       .  A
C875        C876   1.387       .  A
C875        F882   1.359       .  S
C876        C877   1.419       .  A
C876        F881   1.357       .  S
C877        C878   1.435       .  A
C878        F879   1.356       .  S
C883        C884   1.399       .  A
C883        C888   1.398       .  A
C883        F890   1.357       .  S
C884        C885   1.412       .  A
C885        C886   1.393       .  A
C885        F892   1.358       .  S
C886        C887   1.412       .  A
C886        F891   1.358       .  S
C887        C888   1.433       .  A
C888        F889   1.356       .  S
C893        C894   1.416       .  A
C893        C898   1.393       .  A
C893        F900   1.355       .  S
C894        C895   1.427       .  A
C895        C896   1.397       .  A
C895        F902   1.357       .  S
C896        C897   1.400       .  A
C896        F901   1.356       .  S
C897        C898   1.403       .  A
C898        F899   1.358       .  S
C903        C904   1.401       .  A
C903        C908   1.390       .  A
C903        F910   1.357       .  S
C904        C905   1.394       .  A
C905        C906   1.392       .  A
C905        F912   1.358       .  S
C906        C907   1.429       .  A
C906        F911   1.356       .  S
C907        C908   1.417       .  A
C908        F909   1.359       .  S
C913        C914   1.400       .  A
C913        C918   1.405       .  A
C913        F920   1.357       .  S
C914        C915   1.404       .  A
C915        C916   1.400       .  A
C915        F922   1.358       .  S
C916        C917   1.415       .  A
C916        F921   1.353       .  S
C917        C918   1.431       .  A
C918        F919   1.356       .  S
C923        C924   1.400       .  A
C923        C928   1.404       .  A
C923        F930   1.358       .  S
C924        C925   1.404       .  A
C925        C926   1.389       .  A
C925        F932   1.356       .  S
C926        C927   1.414       .  A
C926        F931   1.359       .  S
C927        C928   1.427       .  A
C928        F929   1.356       .  S
C933        C934   1.396       .  A
C933        C938   1.384       .  A
C933        F940   1.346       .  S
C934        C935   1.412       .  A
C935        C936   1.400       .  A
C935        F942   1.356   1_565  S
C936        C937   1.421       .  A
C936        F941   1.354       .  S
C937        C938   1.427       .  A
C938        F939   1.356       .  S
C943        C944   1.414       .  A
C943        C948   1.408       .  A
C943        F950   1.350       .  S
C944        C945   1.402       .  A
C945        C946   1.371       .  A
C945        F952   1.352       .  S
C946        C947   1.409       .  A
C946        F951   1.349       .  S
C947        C948   1.425       .  A
C948        F949   1.357       .  S
C953        C954   1.397       .  A
C953        C958   1.391       .  A
C953        F960   1.358       .  S
C954        C955   1.400       .  A
C955        C956   1.396       .  A
C955        F962   1.359       .  S
C956        C957   1.428       .  A
C956        F961   1.356       .  S
C957        C958   1.422       .  A
C958        F959   1.352       .  S
C963        C964   1.407       .  A
C963        C968   1.394       .  A
C963        F970   1.360       .  S
C964        C965   1.406       .  A
C965        C966   1.406       .  A
C965        F972   1.358       .  S
C966        C967   1.421       .  A
C966        F971   1.357       .  S
C967        C968   1.413       .  A
C968        F969   1.358       .  S
C973        C974   1.402       .  A
C973        C978   1.400       .  A
C973        F980   1.356       .  S
C974        C975   1.417       .  A
C975        C976   1.411       .  A
C975        F982   1.358       .  S
C976        C977   1.413       .  A
C976        F981   1.357       .  S
C977        C978   1.432       .  A
C978        F979   1.357       .  S
C983        C984   1.422       .  A
C983        C988   1.396       .  A
C983        F990   1.358       .  S
C984        C985   1.432       .  A
C985        C986   1.397       .  A
C985        F992   1.353       .  S
C986        C987   1.399       .  A
C986        F991   1.359       .  S
C987        C988   1.402       .  A
C988        F989   1.354       .  S
C993        C994   1.406       .  A
C993        C998   1.376       .  A
C993       F1000   1.355   1_554  S
C994        C995   1.425       .  A
C995        C996   1.406       .  A
C995       F1002   1.345       .  S
C996        C997   1.416       .  A
C996       F1001   1.356       .  S
C997        C998   1.400       .  A
C998        F999   1.356       .  S
C1003      C1004   1.398       .  A
C1003      C1008   1.388       .  A
C1003      F1010   1.355       .  S
C1004      C1005   1.394       .  A
C1005      C1006   1.394       .  A
C1005      F1012   1.358       .  S
C1006      C1007   1.434       .  A
C1006      F1011   1.353       .  S
C1007      C1008   1.420       .  A
C1008      F1009   1.360       .  S
C1013      C1014   1.405       .  A
C1013      C1018   1.401       .  A
C1013      F1020   1.357       .  S
C1014      C1015   1.400       .  A
C1015      C1016   1.394       .  A
C1015      F1022   1.347       .  S
C1016      C1017   1.426       .  A
C1016      F1021   1.356       .  S
C1017      C1018   1.420       .  A
C1018      F1019   1.353       .  S
C1023      C1024   1.421       .  A
C1023      C1028   1.393       .  A
C1023      F1030   1.358       .  S
C1024      C1025   1.432       .  A
C1025      C1026   1.396       .  A
C1025      F1032   1.356       .  S
C1026      C1027   1.397       .  A
C1026      F1031   1.357       .  S
C1027      C1028   1.402       .  A
C1028      F1029   1.359       .  S
C1033      C1034   1.418       .  A
C1033      C1038   1.397       .  A
C1033      F1040   1.359       .  S
C1034      C1035   1.428       .  A
C1035      C1036   1.402       .  A
C1035      F1042   1.355       .  S
C1036      C1037   1.406       .  A
C1036      F1041   1.357       .  S
C1037      C1038   1.408       .  A
C1038      F1039   1.358       .  S
C1043      C1044   1.424       .  A
C1043      C1048   1.400       .  A
C1043      F1050   1.355       .  S
C1044      C1045   1.425       .  A
C1045      C1046   1.385       .  A
C1045      F1052   1.352       .  S
C1046      C1047   1.395       .  A
C1046      F1051   1.360       .  S
C1047      C1048   1.401       .  A
C1048      F1049   1.355       .  S
C1053      C1054   1.415       .  A
C1053      C1058   1.389       .  A
C1053      F1060   1.359       .  S
C1054      C1055   1.423       .  A
C1055      C1056   1.391       .  A
C1055      F1062   1.356       .  S
C1056      C1057   1.403       .  A
C1056      F1061   1.359       .  S
C1057      C1058   1.405       .  A
C1058      F1059   1.353       .  S
C1063      C1064   1.435       .  A
C1063      C1068   1.394       .  A
C1063      F1070   1.357       .  S
C1064      C1065   1.421       .  A
C1065      C1066   1.388       .  A
C1065      F1072   1.358       .  S
C1066      C1067   1.403       .  A
C1066      F1071   1.359       .  S
C1067      C1068   1.395       .  A
C1068      F1069   1.357       .  S
C1073      C1074   1.409       .  A
C1073      C1078   1.379       .  A
C1073      F1080   1.358       .  S
C1074      C1075   1.425       .  A
C1075      C1076   1.406       .  A
C1075      F1082   1.355       .  S
C1076      C1077   1.392       .  A
C1076      F1081   1.355       .  S
C1077      C1078   1.419       .  A
C1078      F1079   1.350       .  S
C1083      C1084   1.398       .  A
C1083      C1088   1.393       .  A
C1083      F1090   1.357       .  S
C1084      C1085   1.395       .  A
C1085      C1086   1.380       .  A
C1085      F1092   1.359       .  S
C1086      C1087   1.426       .  A
C1086      F1091   1.354       .  S
C1087      C1088   1.418       .  A
C1088      F1089   1.358       .  S
C1093      C1094   1.414       .  A
C1093      C1098   1.398       .  A
C1093      F1100   1.356       .  S
C1094      C1095   1.426       .  A
C1095      C1096   1.399       .  A
C1095      F1102   1.356       .  S
C1096      C1097   1.402       .  A
C1096      F1101   1.356       .  S
C1097      C1098   1.407       .  A
C1098      F1099   1.358       .  S
C1103      C1104   1.423       .  A
C1103      C1108   1.389       .  A
C1103      F1110   1.356       .  S
C1104      C1105   1.426       .  A
C1105      C1106   1.413       .  A
C1105      F1112   1.354       .  S
C1106      C1107   1.405       .  A
C1106      F1111   1.357       .  S
C1107      C1108   1.399       .  A
C1108      F1109   1.359       .  S
C1113      C1114   1.417       .  A
C1113      C1118   1.408       .  A
C1113      F1120   1.358       .  S
C1114      C1115   1.425       .  A
C1115      C1116   1.383       .  A
C1115      F1122   1.357       .  S
C1116      C1117   1.404       .  A
C1116      F1121   1.355       .  S
C1117      C1118   1.415       .  A
C1118      F1119   1.349       .  S
C1123      C1124   1.422       .  A
C1123      C1128   1.394       .  A
C1123      F1130   1.355       .  S
C1124      C1125   1.420       .  A
C1125      C1126   1.390       .  A
C1125      F1132   1.351       .  S
C1126      C1127   1.398       .  A
C1126      F1131   1.358       .  S
C1127      C1128   1.404       .  A
C1128      F1129   1.350       .  S
C1133      C1134   1.401       .  A
C1133      C1138   1.371       .  A
C1133      F1140   1.355       .  S
C1134      C1135   1.425       .  A
C1135      C1136   1.407       .  A
C1135      F1142   1.358       .  S
C1136      C1137   1.420       .  A
C1136      F1141   1.352       .  S
C1137      C1138   1.410       .  A
C1138      F1139   1.355       .  S
C1143      C1144   1.426       .  A
C1143      C1148   1.407       .  A
C1143      F1150   1.355       .  S
C1144      C1145   1.424       .  A
C1145      C1146   1.384       .  A
C1145      F1152   1.354       .  S
C1146      C1147   1.394       .  A
C1146      F1151   1.359       .  S
C1147      C1148   1.404       .  A
C1148      F1149   1.357       .  S
C1153      C1154   1.417       .  A
C1153      C1158   1.397       .  A
C1153      F1160   1.358       .  S
C1154      C1155   1.436       .  A
C1155      C1156   1.395       .  A
C1155      F1162   1.357       .  S
C1156      C1157   1.391       .  A
C1156      F1161   1.359       .  S
C1157      C1158   1.405       .  A
C1158      F1159   1.358       .  S
C1163      C1164   1.398       .  A
C1163      C1168   1.391       .  A
C1163      F1170   1.353       .  S
C1164      C1165   1.402       .  A
C1165      C1166   1.395       .  A
C1165      F1172   1.357       .  S
C1166      C1167   1.422       .  A
C1166      F1171   1.358       .  S
C1167      C1168   1.428       .  A
C1168      F1169   1.356       .  S
C1173      C1174   1.417       .  A
C1173      C1178   1.383       .  A
C1173      F1180   1.359       .  S
C1174      C1175   1.424       .  A
C1175      C1176   1.395       .  A
C1175      F1182   1.356       .  S
C1176      C1177   1.401       .  A
C1176      F1181   1.357       .  S
C1177      C1178   1.402       .  A
C1178      F1179   1.359       .  S
C1183      C1184   1.396       .  A
C1183      C1188   1.396       .  A
C1183      F1190   1.357       .  S
C1184      C1185   1.405       .  A
C1185      C1186   1.390       .  A
C1185      F1192   1.358       .  S
C1186      C1187   1.414       .  A
C1186      F1191   1.353       .  S
C1187      C1188   1.431       .  A
C1188      F1189   1.357       .  S
C1193      C1194   1.414       .  A
C1193      C1198   1.395       .  A
C1193      F1200   1.358       .  S
C1194      C1195   1.420       .  A
C1195      C1196   1.388       .  A
C1195      F1202   1.357       .  S
C1196      C1197   1.402       .  A
C1196      F1201   1.348       .  S
C1197      C1198   1.410       .  A
C1198      F1199   1.358       .  S
C1203      C1204   1.416       .  A
C1203      C1208   1.387       .  A
C1203      F1210   1.354       .  S
C1204      C1205   1.433       .  A
C1205      C1206   1.396       .  A
C1205      F1212   1.355       .  S
C1206      C1207   1.397       .  A
C1206      F1211   1.357       .  S
C1207      C1208   1.401       .  A
C1208      F1209   1.353       .  S
C1213      C1214   1.430       .  A
C1213      C1218   1.395       .  A
C1213      F1220   1.355       .  S
C1214      C1215   1.420       .  A
C1215      C1216   1.390       .  A
C1215      F1222   1.358       .  S
C1216      C1217   1.402       .  A
C1216      F1221   1.354       .  S
C1217      C1218   1.401       .  A
C1218      F1219   1.357       .  S
C1223      C1224   1.443       .  A
C1223      C1228   1.400       .  A
C1223      F1230   1.354       .  S
C1224      C1225   1.424       .  A
C1225      C1226   1.395       .  A
C1225      F1232   1.351       .  S
C1226      C1227   1.393       .  A
C1226      F1231   1.358       .  S
C1227      C1228   1.391       .  A
C1228      F1229   1.358       .  S
C1233      C1234   1.422       .  A
C1233      C1238   1.402       .  A
C1233      F1240   1.359       .  S
C1234      C1235   1.426       .  A
C1235      C1236   1.403       .  A
C1235      F1242   1.358       .  S
C1236      C1237   1.407       .  A
C1236      F1241   1.355       .  S
C1237      C1238   1.408       .  A
C1238      F1239   1.358       .  S
C1243      C1244   1.421       .  A
C1243      C1248   1.401       .  A
C1243      F1250   1.354       .  S
C1244      C1245   1.422       .  A
C1245      C1246   1.402       .  A
C1245      F1252   1.357       .  S
C1246      C1247   1.404       .  A
C1246      F1251   1.358       .  S
C1247      C1248   1.407       .  A
C1248      F1249   1.358       .  S
