geometry optimzed in LAMMPS
_audit_creation_date              2020-11-30 
_audit_creation_method            'lammps2cif' 
_symmetry_space_group_name_H-M    'P1' 
_symmetry_Int_Tables_number       1 
_symmetry_cell_setting            triclinic 
loop_ 
_symmetry_equiv_pos_as_xyz 
  x,y,z 
_cell_length_a                    39.443564276660794 
_cell_length_b                    39.47393860758439 
_cell_length_c                    44.17111754686896 
_cell_angle_alpha                 89.56817344053445 
_cell_angle_beta                  89.57621774172466 
_cell_angle_gamma                 89.82988581877179 
loop_ 
_atom_site_label 
_atom_site_type_symbol 
_atom_site_fract_x 
_atom_site_fract_y 
_atom_site_fract_z 
_atom_site_charge 
N1          N  0.64249543  0.55174084  0.23874160    -0.27130
N2          N  0.66850391  0.57001559  0.24758929    -0.34990
C3          C  0.65768310  0.60191054  0.25306545     0.01210
C4          C  0.62301181  0.60320604  0.24784554     0.07230
C5          C  0.61451608  0.57099298  0.23856849    -0.05870
H6          H  0.67344987  0.62209643  0.26147338     0.07900
H7          H  0.58957542  0.56183745  0.23280719     0.09100
Cu8        Cu  0.71565958  0.54731660  0.25330568     0.44170
Cu9        Cu  0.64463532  0.50038012  0.23146242     0.41990
Cu10       Cu  0.71545711  0.45142814  0.25369456     0.43880
N11         N  0.75818271  0.51596795  0.25434512    -0.34520
N12         N  0.75822832  0.48235442  0.25457622    -0.28770
C13         C  0.79054174  0.47130797  0.25382629    -0.04870
C14         C  0.81169162  0.49914283  0.25300649     0.07340
C15         C  0.79040195  0.52696028  0.25344735     0.01140
H16         H  0.79803028  0.44492428  0.25342073     0.08790
H17         H  0.79774161  0.55334579  0.25272095     0.07870
N18         N  0.66824533  0.42969107  0.24613014    -0.35970
N19         N  0.64292028  0.44856710  0.23625504    -0.28150
C20         C  0.61494814  0.42967746  0.23433423    -0.03390
C21         C  0.62246877  0.39710699  0.24393644     0.05220
C22         C  0.65679892  0.39782913  0.25089899     0.03310
H23         H  0.59054484  0.43953449  0.22751302     0.08420
H24         H  0.67179308  0.37730198  0.26018406     0.07250
N25         N  0.36337888  0.72530672  0.24340582    -0.27130
N26         N  0.34467920  0.75265525  0.24757337    -0.34990
C27         C  0.31197734  0.74323260  0.25103658     0.01210
C28         C  0.31053526  0.70814005  0.24930946     0.07230
C29         C  0.34360045  0.69786264  0.24434996    -0.05870
H30         H  0.29121181  0.76039725  0.25577376     0.07900
H31         H  0.35284482  0.67214618  0.24224735     0.09100
Cu32       Cu  0.36750652  0.79986250  0.25043142     0.44170
Cu33       Cu  0.41526406  0.72547653  0.23988733     0.41990
Cu34       Cu  0.46362722  0.79923732  0.25112572     0.43880
N35         N  0.39877694  0.84217102  0.25176115    -0.34520
N36         N  0.43241695  0.84203560  0.25189133    -0.28770
C37         C  0.44341719  0.87426491  0.25197174    -0.04870
C38         C  0.41554711  0.89555786  0.25190634     0.07340
C39         C  0.38772697  0.87443493  0.25182241     0.01140
H40         H  0.46982038  0.88162542  0.25181448     0.08790
H41         H  0.36132106  0.88192003  0.25144922     0.07870
N42         N  0.48599239  0.75143741  0.24844730    -0.35970
N43         N  0.46704817  0.72452862  0.24376574    -0.28150
C44         C  0.48641766  0.69668931  0.24434541    -0.03390
C45         C  0.51953421  0.70609563  0.24973693     0.05220
C46         C  0.51848043  0.74123571  0.25200922     0.03310
H47         H  0.47680452  0.67128263  0.24149091     0.08420
H48         H  0.53937420  0.75793768  0.25696426     0.07250
N49         N  0.36402565  0.27205400  0.26118601    -0.27130
N50         N  0.34510550  0.24666804  0.25211690    -0.34990
C51         C  0.31323469  0.25826712  0.24757574     0.01210
C52         C  0.31268411  0.29278204  0.25382563     0.07230
C53         C  0.34529278  0.30024958  0.26276482    -0.05870
H54         H  0.29260691  0.24324473  0.23892850     0.07900
H55         H  0.35524969  0.32472472  0.26892578     0.09100
Cu56       Cu  0.36770661  0.19953035  0.24542807     0.44170
Cu57       Cu  0.41557427  0.26938325  0.26570959     0.41990
Cu58       Cu  0.46504562  0.19912781  0.24657671     0.43880
N59         N  0.39945921  0.15712357  0.24528620    -0.34520
N60         N  0.43312874  0.15692328  0.24579975    -0.28770
C61         C  0.44396860  0.12458277  0.24694820    -0.04870
C62         C  0.41603491  0.10355690  0.24721081     0.07340
C63         C  0.38831764  0.12494779  0.24608614     0.01140
H64         H  0.47031933  0.11697586  0.24787142     0.08790
H65         H  0.36187935  0.11771002  0.24622872     0.07870
N66         N  0.48678331  0.24672488  0.25254805    -0.35970
N67         N  0.46711372  0.27216053  0.26055148    -0.28150
C68         C  0.48542658  0.30040037  0.26256094    -0.03390
C69         C  0.51900289  0.29307728  0.25557628     0.05220
C70         C  0.51884187  0.25837416  0.24929541     0.03310
H71         H  0.47426370  0.32456020  0.26815193     0.08420
H72         H  0.54001908  0.24277657  0.24236966     0.07250
N73         N  0.18949089  0.55386737  0.24395287    -0.27130
N74         N  0.16240388  0.57271057  0.24893086    -0.34990
C75         C  0.17234469  0.60511745  0.25278693     0.01210
C76         C  0.20750638  0.60607342  0.25055863     0.07230
C77         C  0.21724010  0.57316404  0.24461749    -0.05870
H78         H  0.15551448  0.62600411  0.25797033     0.07900
H79         H  0.24276446  0.56363534  0.24152237     0.09100
Cu80       Cu  0.11508376  0.54980811  0.25171313     0.44170
Cu81       Cu  0.18859475  0.50231005  0.23993605     0.41990
Cu82       Cu  0.11609612  0.45280408  0.25134900     0.43880
N83         N  0.07309476  0.51792618  0.25193983    -0.34520
N84         N  0.07339204  0.48428596  0.25189069    -0.28770
C85         C  0.04119962  0.47316833  0.25136081    -0.04870
C86         C  0.01976849  0.50090656  0.25099901     0.07340
C87         C  0.04075024  0.52880096  0.25143960     0.01140
H88         H  0.03396293  0.44675581  0.25105225     0.08790
H89         H  0.03312724  0.55515424  0.25122740     0.07870
N90         N  0.16407697  0.43089397  0.24716359    -0.35970
N91         N  0.19049693  0.45059492  0.24249076    -0.28150
C92         C  0.21864753  0.43185072  0.24093226    -0.03390
C93         C  0.21015822  0.39798397  0.24450636     0.05220
C94         C  0.17495837  0.39839805  0.24853476     0.03310
H95         H  0.24353683  0.44277230  0.23806277     0.08420
H96         H  0.15839869  0.37699218  0.25220962     0.07250
O97         O  0.94414176  0.49850076  0.04568957    -0.72790
O98         O  0.94378977  0.49879812  0.45476828    -0.73770
O99         O  0.94443179  0.54983104  0.49993372    -0.62390
O100        O  0.94358297  0.44822564  0.50052096    -0.70800
O101        O  0.88727925  0.44887403  0.50140580    -0.70350
O102        O  0.88812419  0.55055307  0.50014373    -0.61600
O103        O  0.88753369  0.49978616  0.45533651    -0.74110
O104        O  0.88783283  0.50044872  0.04619110    -0.72890
Cu105      Cu  0.94596390  0.49885305  0.50020570     1.04560
Cu106      Cu  0.88572808  0.49989746  0.50078407     1.04330
C107        C  0.91603075  0.49952341  0.06020711     0.93410
C108        C  0.91559373  0.49939075  0.44069389     0.92550
C109        C  0.91641696  0.56617975  0.49990539     0.84700
C110        C  0.91531811  0.43255866  0.50113226     0.90970
O111        O  0.91478531  0.52806370  0.29591159    -0.72790
O112        O  0.91513206  0.52836355  0.20502963    -0.73770
O113        O  0.86445475  0.52768630  0.25090186    -0.62390
O114        O  0.96617583  0.52864374  0.25039299    -0.70800
O115        O  0.96700819  0.47238362  0.25017852    -0.70350
O116        O  0.86530381  0.47142590  0.25150158    -0.61600
O117        O  0.91617608  0.47216445  0.20520812    -0.74110
O118        O  0.91695980  0.47180168  0.29611170    -0.72890
Cu119      Cu  0.91514967  0.53016068  0.25050041     1.04560
Cu120      Cu  0.91633925  0.46997757  0.25070659     1.04330
C121        C  0.91593893  0.49988688  0.31026904     0.93410
C122        C  0.91563084  0.50033033  0.19073974     0.92550
C123        C  0.84888040  0.49938219  0.25167078     0.84700
C124        C  0.98258685  0.50067050  0.25042579     0.90970
O125        O  0.41471585  0.97120866  0.04577841    -0.72790
O126        O  0.41641678  0.97113003  0.45495884    -0.73770
O127        O  0.46661208  0.97161106  0.50057043    -0.62390
O128        O  0.36481054  0.97085109  0.50013215    -0.70800
O129        O  0.36452067  0.02709885  0.50092241    -0.70350
O130        O  0.46621981  0.02785305  0.49892275    -0.61600
O131        O  0.41451183  0.02727381  0.45447470    -0.74110
O132        O  0.41643175  0.02747495  0.04537669    -0.72890
Cu133      Cu  0.41567834  0.96923358  0.50038277     1.04560
Cu134      Cu  0.41538652  0.02939651  0.49991524     1.04330
C135        C  0.41560259  0.99933819  0.05983397     0.93410
C136        C  0.41550001  0.99915319  0.44031161     0.92550
C137        C  0.48242919  0.99981664  0.49961246     0.84700
C138        C  0.34865958  0.99893358  0.50058593     0.90970
O139        O  0.38753606  0.00136818  0.29573631    -0.72790
O140        O  0.38725586  0.99822313  0.20497326    -0.73770
O141        O  0.38738704  0.94886782  0.25193266    -0.62390
O142        O  0.38760020  0.05058597  0.24864050    -0.70800
O143        O  0.44388739  0.05019210  0.24953622    -0.70350
O144        O  0.44367124  0.94858663  0.25009810    -0.61600
O145        O  0.44347494  0.99970849  0.20438399    -0.74110
O146        O  0.44383464  0.99887043  0.29530669    -0.72890
Cu147      Cu  0.38546611  0.99976562  0.25035929     1.04560
Cu148      Cu  0.44568525  0.99934241  0.24982836     1.04330
C149        C  0.41570736  0.00018612  0.30976813     0.93410
C150        C  0.41529096  0.99882988  0.19030513     0.92550
C151        C  0.41551915  0.93273481  0.25131228     0.84700
C152        C  0.41582545  0.06638271  0.24858262     0.90970
N153        N  0.96768972  0.77433755  0.50121146    -0.27130
N154        N  0.98696609  0.74700671  0.50036542    -0.34990
C155        C  0.01979710  0.75663854  0.50142542     0.01210
C156        C  0.02073378  0.79180094  0.50333144     0.07230
C157        C  0.98717181  0.80187728  0.50296744    -0.05870
H158        H  0.04115159  0.73939008  0.50163904     0.07900
H159        H  0.97742315  0.82749839  0.50388931     0.09100
Cu160      Cu  0.96464614  0.69929519  0.49919164     0.44170
Cu161      Cu  0.91576474  0.77390359  0.50076761     0.41990
Cu162      Cu  0.86802181  0.69919122  0.50034792     0.43880
N163        N  0.93335196  0.65678281  0.49937047    -0.34520
N164        N  0.89969785  0.65682501  0.49981307    -0.28770
C165        C  0.88873185  0.62460748  0.49996593    -0.04870
C166        C  0.91658631  0.60335003  0.49964866     0.07340
C167        C  0.94441633  0.62449904  0.49927359     0.01140
H168        H  0.86233156  0.61723459  0.50037304     0.08790
H169        H  0.97082850  0.61702004  0.49903305     0.07870
N170        N  0.84488274  0.74661858  0.00002138    -0.35970
N171        N  0.86384605  0.77414759  0.49998580    -0.28150
C172        C  0.84402041  0.80159806  0.49839318    -0.03390
C173        C  0.81062890  0.79126746  0.49729474     0.05220
C174        C  0.81200331  0.75606667  0.49860075     0.03310
H175        H  0.85341164  0.82732253  0.49786856     0.08420
H176        H  0.79090359  0.73868434  0.49756868     0.07250
N177        N  0.14044978  0.05199179  0.49399564    -0.27130
N178        N  0.16818914  0.07037040  0.49623665    -0.34990
C179        C  0.15922867  0.10324012  0.49918831     0.01210
C180        C  0.12406358  0.10515134  0.49921200     0.07230
C181        C  0.11321557  0.07217722  0.49579936    -0.05870
H182        H  0.17683684  0.12385899  0.50230124     0.07900
H183        H  0.08729146  0.06334166  0.49510053     0.09100
Cu184      Cu  0.21549535  0.04711771  0.49749736     0.44170
Cu185      Cu  0.14014230  0.00009969  0.49091634     0.42070
Cu186      Cu  0.21517313  0.95140061  0.49824499     0.43880
N187        N  0.25799775  0.01582328  0.49923903    -0.34520
N188        N  0.25797387  0.98221705  0.49948923    -0.28770
C189        C  0.29024407  0.97110650  0.50026929    -0.04870
C190        C  0.31145415  0.99889744  0.50052207     0.07340
C191        C  0.29023263  0.02676294  0.49989247     0.01140
H192        H  0.29768590  0.94470219  0.50038965     0.08790
H193        H  0.29764353  0.05313331  0.49962840     0.07870
N194        N  0.16743111  0.92918119  0.49647608    -0.35970
N195        N  0.14002497  0.94812679  0.49343716    -0.28150
C196        C  0.11246012  0.92850339  0.49479965    -0.03390
C197        C  0.12267365  0.89533810  0.49912249     0.05220
C198        C  0.15785810  0.89650497  0.49972058     0.03310
H199        H  0.08673642  0.93794208  0.49340972     0.08420
H200        H  0.17502001  0.87550734  0.50355719     0.07250
N201        N  0.96925253  0.22523365  0.49184218    -0.27130
N202        N  0.98752482  0.25264141  0.49641698    -0.34990
C203        C  0.02014923  0.24330692  0.50059933     0.01210
C204        C  0.02191687  0.20822731  0.49909332     0.07230
C205        C  0.98922727  0.19783084  0.49332002    -0.05870
H206        H  0.04062709  0.26050918  0.50559608     0.07900
H207        H  0.98038652  0.17207860  0.49089180     0.09100
Cu208      Cu  0.96414835  0.29979634  0.49897590     0.44170
Cu209      Cu  0.91751150  0.22534998  0.48684918     0.41990
Cu210      Cu  0.86825087  0.29887572  0.50002442     0.43880
N211        N  0.93248243  0.34202935  0.50072297    -0.34520
N212        N  0.89884846  0.34183722  0.50120690    -0.28770
C213        C  0.88756405  0.37405025  0.50168246    -0.04870
C214        C  0.91527522  0.39538044  0.50144713     0.07340
C215        C  0.94325752  0.37429712  0.50088302     0.01140
H216        H  0.86110597  0.38136303  0.50182121     0.08790
H217        H  0.96961063  0.38182874  0.50030348     0.07870
N218        N  0.84644207  0.25115931  0.49590487    -0.35970
N219        N  0.86554643  0.22443071  0.49018266    -0.28150
C220        C  0.84631137  0.19657602  0.49036260    -0.03390
C221        C  0.81324417  0.20582995  0.49680036     0.05220
C222        C  0.81405891  0.24083430  0.49983655     0.03310
H223        H  0.85605906  0.17122728  0.48700759     0.08420
H224        H  0.79311489  0.25724110  0.50591988     0.07250
N225        N  0.69019440  0.94714024  0.50373036    -0.27130
N226        N  0.66284225  0.92827822  0.50131821    -0.34990
C227        C  0.67248581  0.89555160  0.99865404     0.01210
C228        C  0.70772989  0.89434431  0.49900976     0.07230
C229        C  0.71782374  0.92751362  0.50262266    -0.05870
H230        H  0.65536273  0.87454228  0.99546428     0.07900
H231        H  0.74349434  0.93696092  0.50379720     0.09100
Cu232      Cu  0.61547392  0.95149844  0.49998577     0.44170
Cu233      Cu  0.68954472  0.99890687  0.50547604     0.41990
Cu234      Cu  0.61569700  0.04845148  0.50025768     0.43880
N235        N  0.57321159  0.98328826  0.49944028    -0.34520
N236        N  0.57314014  0.01693034  0.49944860    -0.28770
C237        C  0.54078354  0.02787887  0.49935249    -0.04870
C238        C  0.51965368  0.00000650  0.49933738     0.07340
C239        C  0.54099153  0.97224804  0.49937570     0.01140
H240        H  0.53322290  0.05424782  0.49951253     0.08790
H241        H  0.53367890  0.94585002  0.49949717     0.07870
N242        N  0.66373696  0.07039637  0.50241349    -0.35970
N243        N  0.69068313  0.05070571  0.50437463    -0.28150
C244        C  0.71861377  0.06965325  0.50560998    -0.03390
C245        C  0.70934763  0.10345457  0.50468259     0.05220
C246        C  0.67407941  0.10305067  0.50244661     0.03310
H247        H  0.74395641  0.05922727  0.50677222     0.08420
H248        H  0.65720318  0.12465516  0.50143289     0.07250
C249        C  0.76573543  0.12642421  0.01823505    -0.21150
C250        C  0.73349932  0.13228738  0.50588875    -0.09190
C251        C  0.72636642  0.16452510  0.49345938     0.29670
C252        C  0.75191719  0.18930396  0.49174155    -0.21150
C253        C  0.78478759  0.18211100  0.50213219    -0.09200
C254        C  0.79106226  0.15074320  0.01626149     0.29670
F255        F  0.82184371  0.14335876  0.02822554    -0.19730
H256        H  0.77181919  0.10258679  0.02917846     0.18040
H257        H  0.74648442  0.21345749  0.48101845     0.18040
F258        F  0.69550629  0.17159168  0.48160071    -0.19720
C259        C  0.08245481  0.19138730  0.48947347    -0.21150
C260        C  0.05113054  0.18540024  0.50387992    -0.09190
C261        C  0.04640151  0.15508071  0.02022639     0.29670
C262        C  0.07129635  0.13006508  0.01995225    -0.21150
C263        C  0.10153065  0.13471078  0.50355034    -0.09200
C264        C  0.10764418  0.16612021  0.48926038     0.29670
F265        F  0.13661997  0.17136655  0.47317427    -0.19730
H266        H  0.08655364  0.21464074  0.47681929     0.18040
H267        H  0.06640301  0.10645272  0.03183102     0.18040
F268        F  0.01717574  0.14919167  0.03580014    -0.19720
C269        C  0.78605689  0.84493675  0.47820739    -0.21150
C270        C  0.78122708  0.81435724  0.49399848    -0.09190
C271        C  0.74971221  0.80825893  0.00825628     0.29670
C272        C  0.72464613  0.83368957  0.00850667    -0.21150
C273        C  0.73088927  0.86525313  0.49461589    -0.09200
C274        C  0.76133155  0.87005820  0.47844426     0.29670
F275        F  0.76757968  0.89938509  0.46317461    -0.19730
H276        H  0.80955645  0.84987632  0.46615241     0.18040
H277        H  0.70124800  0.82943455  0.02092410     0.18040
F278        F  0.74403446  0.77889147  0.02359365    -0.19720
C279        C  0.04500449  0.84558702  0.02142639    -0.21150
C280        C  0.04993620  0.81508016  0.50596929    -0.09190
C281        C  0.08125117  0.80917656  0.49136963     0.29670
C282        C  0.10605758  0.83470385  0.49051447    -0.21150
C283        C  0.09973891  0.86623284  0.50407127    -0.09200
C284        C  0.06944825  0.87086030  0.02051066     0.29670
F285        F  0.06314918  0.90019332  0.03541863    -0.19730
H286        H  0.02166962  0.85041104  0.03374603     0.18040
H287        H  0.12931828  0.83054776  0.47788316     0.18040
F288        F  0.08700415  0.77988288  0.47628255    -0.19720
C289        C  0.40352713  0.02761108  0.39076561    -0.21150
C290        C  0.41555199  0.99913580  0.40678598    -0.09190
C291        C  0.42766113  0.97100924  0.39040488     0.29670
C292        C  0.42810158  0.97176001  0.35874641    -0.21150
C293        C  0.41572857  0.00005658  0.34297643    -0.09200
C294        C  0.40323755  0.02794047  0.35910931     0.29670
F295        F  0.39143851  0.05572239  0.34421433    -0.19730
H296        H  0.39399291  0.04953709  0.40275836     0.18040
H297        H  0.43770148  0.95003849  0.34647925     0.18040
F298        F  0.43961119  0.94301545  0.40487538    -0.19720
C299        C  0.38887517  0.98394677  0.10908520    -0.21150
C300        C  0.41557523  0.99928249  0.09306043    -0.09190
C301        C  0.44216916  0.01432273  0.10897101     0.29670
C302        C  0.44215922  0.01365428  0.14062485    -0.21150
C303        C  0.41518247  0.99877444  0.15683982    -0.09200
C304        C  0.38832939  0.98408251  0.14074276     0.29670
F305        F  0.36190798  0.96926583  0.15553094    -0.19730
H306        H  0.36819530  0.97227072  0.09701989     0.18040
H307        H  0.46305196  0.02520339  0.15248143     0.18040
F308        F  0.46850538  0.02890676  0.09387150    -0.19720
C309        C  0.94165957  0.48330352  0.39118369    -0.21150
C310        C  0.91550246  0.49960460  0.40725917    -0.09190
C311        C  0.88958484  0.51615543  0.39107656     0.29670
C312        C  0.89019384  0.51662962  0.35942088    -0.21150
C313        C  0.91598718  0.49979177  0.34350120    -0.09200
C314        C  0.94167711  0.48296251  0.35953004     0.29670
F315        F  0.96718632  0.46694592  0.34454073    -0.19730
H316        H  0.96185471  0.47040615  0.40316122     0.18040
H317        H  0.87022654  0.52971096  0.34728350     0.18040
F318        F  0.86411426  0.53252002  0.40580538    -0.19720
C319        C  0.89980461  0.52598242  0.10909459    -0.21150
C320        C  0.91609393  0.49972659  0.09345967    -0.09190
C321        C  0.93221542  0.47374424  0.10979431     0.29670
C322        C  0.93159243  0.47386135  0.14146100    -0.21150
C323        C  0.91572781  0.50039591  0.15726098    -0.09200
C324        C  0.90002354  0.52668328  0.14075179     0.29670
F325        F  0.88422612  0.55262935  0.15516181    -0.19730
H326        H  0.88730508  0.54620390  0.09672299     0.18040
H327        H  0.94391610  0.45340903  0.15365711     0.18040
F328        F  0.94777971  0.44784924  0.09510405    -0.19720
C329        C  0.26884186  0.37573402  0.23687164    -0.21150
C330        C  0.23484447  0.36915569  0.24472033    -0.09190
C331        C  0.22603742  0.33569140  0.25317284     0.29670
C332        C  0.25114330  0.31033352  0.25509955    -0.21150
C333        C  0.28528728  0.31796628  0.24891430    -0.09200
C334        C  0.29362142  0.35081112  0.23903168     0.29670
F335        F  0.32584409  0.35905451  0.23093887    -0.19730
H336        H  0.27692689  0.40037303  0.22898652     0.18040
H337        H  0.24408501  0.28506658  0.26243357     0.18040
F338        F  0.19360136  0.32741645  0.26026233    -0.19720
C339        C  0.22391419  0.66701047  0.24272066    -0.21150
C340        C  0.23097218  0.63472594  0.25479495    -0.09190
C341        C  0.26247677  0.62885051  0.26857860     0.29670
C342        C  0.28734629  0.65370247  0.26797681    -0.21150
C343        C  0.28146855  0.68507612  0.25386272    -0.09200
C344        C  0.24906035  0.69217832  0.24223739     0.29670
F345        F  0.24248641  0.72235083  0.22855561    -0.19730
H346        H  0.19971915  0.67208078  0.23214954     0.18040
H347        H  0.31171905  0.64799343  0.27797239     0.18040
F348        F  0.26960295  0.59874152  0.28220057    -0.19720
C349        C  0.60677516  0.66477431  0.24398346    -0.21150
C350        C  0.59883510  0.63139305  0.25274061    -0.09190
C351        C  0.56621817  0.62434753  0.26407020     0.29670
C352        C  0.54140870  0.64943362  0.26441520    -0.21150
C353        C  0.54829641  0.68219102  0.25347381    -0.09200
C354        C  0.58163499  0.69012801  0.24427703     0.29670
F355        F  0.58940089  0.72156374  0.23377616    -0.19730
H356        H  0.63185447  0.67076759  0.23539614     0.18040
H357        H  0.51636951  0.64285227  0.27272327     0.18040
F358        F  0.55804393  0.59296950  0.27453178    -0.19720
C359        C  0.60599175  0.33533824  0.24434693    -0.21150
C360        C  0.59748571  0.36954937  0.24886324    -0.09190
C361        C  0.56409994  0.37769663  0.25735409     0.29670
C362        C  0.53956203  0.35267128  0.25973258    -0.21150
C363        C  0.54715782  0.31843403  0.25400584    -0.09200
C364        C  0.58110478  0.30990732  0.24679875     0.29670
F365        F  0.59045314  0.27733103  0.24189334    -0.19730
H366        H  0.63168481  0.32839134  0.23814692     0.18040
H367        H  0.51442269  0.36087605  0.26604791     0.18040
F368        F  0.55493163  0.40996978  0.26405098    -0.19720
N369        N  0.64249530  0.55174081  0.73874158    -0.27130
N370        N  0.66850380  0.57001557  0.74758922    -0.34990
C371        C  0.65768302  0.60191053  0.75306535     0.01210
C372        C  0.62301173  0.60320603  0.74784549     0.07230
C373        C  0.61451597  0.57099297  0.73856847    -0.05870
H374        H  0.67344980  0.62209642  0.76147327     0.07900
H375        H  0.58957529  0.56183743  0.73280723     0.09100
Cu376      Cu  0.71565944  0.54731662  0.75330569     0.44170
Cu377      Cu  0.64463513  0.50038007  0.73146252     0.41990
Cu378      Cu  0.71545715  0.45142821  0.75369430     0.43880
N379        N  0.75818259  0.51596808  0.75434535    -0.34520
N380        N  0.75822827  0.48235455  0.75457626    -0.28770
C381        C  0.79054171  0.47130818  0.75382634    -0.04870
C382        C  0.81169152  0.49914309  0.75300673     0.07340
C383        C  0.79040180  0.52696049  0.75344776     0.01140
H384        H  0.79803032  0.44492451  0.75342062     0.08790
H385        H  0.79774140  0.55334603  0.75272147     0.07870
N386        N  0.66824541  0.42969105  0.74612996    -0.35970
N387        N  0.64292021  0.44856705  0.73625511    -0.28150
C388        C  0.61494810  0.42967732  0.73433449    -0.03390
C389        C  0.62246896  0.39710685  0.74393652     0.05220
C390        C  0.65679915  0.39782906  0.75089881     0.03310
H391        H  0.59054465  0.43953429  0.72751360     0.08420
H392        H  0.67179346  0.37730194  0.76018375     0.07250
N393        N  0.36337883  0.72530678  0.74340574    -0.27130
N394        N  0.34467919  0.75265533  0.74757324    -0.34990
C395        C  0.31197731  0.74323275  0.75103642     0.01210
C396        C  0.31053519  0.70814021  0.74930932     0.07230
C397        C  0.34360036  0.69786273  0.74434988    -0.05870
H398        H  0.29121180  0.76039743  0.75577360     0.07900
H399        H  0.35284469  0.67214624  0.74224734     0.09100
Cu400      Cu  0.36750654  0.79986253  0.75043139     0.44170
Cu401      Cu  0.41526403  0.72547651  0.73988737     0.41990
Cu402      Cu  0.46362724  0.79923724  0.75112579     0.43880
N403        N  0.39877702  0.84217098  0.75176125    -0.34520
N404        N  0.43241703  0.84203550  0.75189149    -0.28770
C405        C  0.44341733  0.87426478  0.75197194    -0.04870
C406        C  0.41554730  0.89555777  0.75190646     0.07340
C407        C  0.38772711  0.87443491  0.75182249     0.01140
H408        H  0.46982055  0.88162523  0.75181469     0.08790
H409        H  0.36132122  0.88192006  0.75144923     0.07870
N410        N  0.48599237  0.75143736  0.74844734    -0.35970
N411        N  0.46704815  0.72452858  0.74376579    -0.28150
C412        C  0.48641764  0.69668926  0.74434546    -0.03390
C413        C  0.51953418  0.70609560  0.74973697     0.05220
C414        C  0.51848042  0.74123567  0.75200925     0.03310
H415        H  0.47680450  0.67128258  0.74149098     0.08420
H416        H  0.53937418  0.75793764  0.75696429     0.07250
N417        N  0.36402553  0.27205432  0.76118504    -0.27130
N418        N  0.34510531  0.24666796  0.75211694    -0.34990
C419        C  0.31323434  0.25826675  0.74757606     0.01210
C420        C  0.31268376  0.29278187  0.75382504     0.07230
C421        C  0.34529258  0.30024988  0.76276342    -0.05870
H422        H  0.29260643  0.24324398  0.73892958     0.07900
H423        H  0.35524951  0.32472531  0.76892351     0.09100
Cu424      Cu  0.36770657  0.19953017  0.74542879     0.44170
Cu425      Cu  0.41557417  0.26938386  0.76570799     0.41990
Cu426      Cu  0.46504571  0.19912772  0.74657767     0.43880
N427        N  0.39945929  0.15712343  0.74528671    -0.34520
N428        N  0.43312882  0.15692320  0.74580037    -0.28770
C429        C  0.44396874  0.12458270  0.74694860    -0.04870
C430        C  0.41603511  0.10355677  0.74721094     0.07340
C431        C  0.38831779  0.12494762  0.74608632     0.01140
H432        H  0.47031949  0.11697584  0.74787188     0.08790
H433        H  0.36187952  0.11770979  0.74622878     0.07870
N434        N  0.48678341  0.24672491  0.75254829    -0.35970
N435        N  0.46711364  0.27216093  0.76055042    -0.28150
C436        C  0.48542648  0.30040080  0.76255952    -0.03390
C437        C  0.51900303  0.29307733  0.75557615     0.05220
C438        C  0.51884212  0.25837397  0.74929626     0.03310
H439        H  0.47426343  0.32456089  0.76814936     0.08420
H440        H  0.54001956  0.24277600  0.74237176     0.07250
N441        N  0.18949110  0.55386727  0.74395405    -0.27130
N442        N  0.16240396  0.57271058  0.74893110    -0.34990
C443        C  0.17234467  0.60511757  0.75278670     0.01210
C444        C  0.20750642  0.60607350  0.75055907     0.07230
C445        C  0.21724027  0.57316396  0.74461876    -0.05870
H446        H  0.15551433  0.62600438  0.75796932     0.07900
H447        H  0.24276469  0.56363518  0.74152423     0.09100
Cu448      Cu  0.11508377  0.54980815  0.75171270     0.44170
Cu449      Cu  0.18859521  0.50230988  0.73993823     0.41990
Cu450      Cu  0.11609594  0.45280405  0.75134757     0.43880
N451        N  0.07309472  0.51792626  0.75193923    -0.34520
N452        N  0.07339193  0.48428604  0.75188963    -0.28770
C453        C  0.04119947  0.47316849  0.75136002    -0.04870
C454        C  0.01976838  0.50090678  0.75099900     0.07340
C455        C  0.04075021  0.52880112  0.75143962     0.01140
H456        H  0.03396271  0.44675600  0.75105128     0.08790
H457        H  0.03312726  0.55515442  0.75122794     0.07870
N458        N  0.16407687  0.43089378  0.74716339    -0.35970
N459        N  0.19049720  0.45059474  0.74249233    -0.28150
C460        C  0.21864775  0.43185040  0.74093431    -0.03390
C461        C  0.21015797  0.39798360  0.74450671     0.05220
C462        C  0.17495797  0.39839772  0.74853378     0.03310
H463        H  0.24353735  0.44277177  0.73806620     0.08420
H464        H  0.15839797  0.37699172  0.75220687     0.07250
O465        O  0.94416547  0.49852421  0.54569013    -0.72790
O466        O  0.94376720  0.49877193  0.95476998    -0.73770
O467        O  0.94438535  0.54980228  0.99993329    -0.62390
O468        O  0.94357819  0.44820136  0.00052270    -0.70800
O469        O  0.88727395  0.44883289  0.00140656    -0.70350
O470        O  0.88807715  0.55050616  0.00014320    -0.61600
O471        O  0.88751068  0.49974241  0.95533533    -0.74110
O472        O  0.88785723  0.50049134  0.54618998    -0.72890
Cu473      Cu  0.94593941  0.49882791  0.00020631     1.04560
Cu474      Cu  0.88570283  0.49985252  0.00078408     1.04330
C475        C  0.91605399  0.49955421  0.56020692     0.93410
C476        C  0.91557217  0.49935795  0.94069425     0.92550
C477        C  0.91636484  0.56614096  0.99990463     0.84700
C478        C  0.91531784  0.43252682  0.00113412     0.90970
O479        O  0.91478439  0.52806236  0.79591369    -0.72790
O480        O  0.91513266  0.52836589  0.70503195    -0.73770
O481        O  0.86445462  0.52768670  0.75090339    -0.62390
O482        O  0.96617572  0.52864408  0.75039525    -0.70800
O483        O  0.96700801  0.47238401  0.75017767    -0.70350
O484        O  0.86530368  0.47142628  0.75150032    -0.61600
O485        O  0.91617636  0.47216682  0.70520670    -0.74110
O486        O  0.91695901  0.47180036  0.79611055    -0.72890
Cu487      Cu  0.91514954  0.53016110  0.75050250     1.04560
Cu488      Cu  0.91633906  0.46997801  0.75070540     1.04330
C489        C  0.91593737  0.49988452  0.81026953     0.93410
C490        C  0.91563180  0.50033391  0.69074016     0.92550
C491        C  0.84888028  0.49938255  0.75167095     0.84700
C492        C  0.98258671  0.50067082  0.75042632     0.90970
O493        O  0.41472548  0.97121963  0.54577788    -0.72790
O494        O  0.41640653  0.97111997  0.95495803    -0.73770
O495        O  0.46660126  0.97161345  0.00057010    -0.62390
O496        O  0.36479843  0.97082187  0.00013212    -0.70800
O497        O  0.36449218  0.02706929  0.00092190    -0.70350
O498        O  0.46619723  0.02785522  0.99892348    -0.61600
O499        O  0.41448804  0.02726326  0.95447565    -0.74110
O500        O  0.41645682  0.02748543  0.54537710    -0.72890
Cu501      Cu  0.41566804  0.96922186  0.00038262     1.04560
Cu502      Cu  0.41536058  0.02938448  0.99991547     1.04330
C503        C  0.41561817  0.99934844  0.55983394     0.93410
C504        C  0.41548466  0.99914366  0.94031164     0.92550
C505        C  0.48241299  0.99982205  0.99961275     0.84700
C506        C  0.34863849  0.99889914  0.00058529     0.90970
O507        O  0.38753612  0.00136798  0.79573572    -0.72790
O508        O  0.38725699  0.99822311  0.70497228    -0.73770
O509        O  0.38738733  0.94886773  0.75193204    -0.62390
O510        O  0.38760053  0.05058578  0.74863988    -0.70800
O511        O  0.44388768  0.05019200  0.74953696    -0.70350
O512        O  0.44367158  0.94858648  0.75009864    -0.61600
O513        O  0.44347609  0.99970862  0.70438506    -0.74110
O514        O  0.44383469  0.99887008  0.79530718    -0.72890
Cu515      Cu  0.38546651  0.99976546  0.75035858     1.04560
Cu516      Cu  0.44568566  0.99934226  0.74982907     1.04330
C517        C  0.41570711  0.00018568  0.80976807     0.93410
C518        C  0.41529278  0.99883051  0.69030518     0.92550
C519        C  0.41551943  0.93273470  0.75131229     0.84700
C520        C  0.41582573  0.06638258  0.74858268     0.90970
N521        N  0.96764317  0.77427844  0.00121081    -0.27130
N522        N  0.98691823  0.74694735  0.00036319    -0.34990
C523        C  0.01975034  0.75657723  0.00141846     0.01210
C524        C  0.02068895  0.79174006  0.00332262     0.07230
C525        C  0.98712669  0.80181731  0.00296246    -0.05870
H526        H  0.04110376  0.73932765  0.00163014     0.07900
H527        H  0.97737866  0.82743851  0.00388419     0.09100
Cu528      Cu  0.96458602  0.69924426  0.99919158     0.44170
Cu529      Cu  0.91571752  0.77384124  0.00077315     0.41990
Cu530      Cu  0.86794940  0.69914397  0.00034504     0.43880
N531        N  0.93328385  0.65674125  0.99936952    -0.34520
N532        N  0.89962952  0.65678111  0.99981096    -0.28770
C533        C  0.88866668  0.62456242  0.99996356    -0.04870
C534        C  0.91652419  0.60330915  0.99964729     0.07340
C535        C  0.94435128  0.62445969  0.99927306     0.01140
H536        H  0.86226729  0.61718627  0.00036998     0.08790
H537        H  0.97076423  0.61698346  0.99903358     0.07870
N538        N  0.84494012  0.74665903  0.50002230    -0.35970
N539        N  0.86379849  0.77410035  0.99998872    -0.28150
C540        C  0.84398279  0.80155795  0.99839753    -0.03390
C541        C  0.81058766  0.79123976  0.99729615     0.05220
C542        C  0.81194930  0.75603822  0.99859871     0.03310
H543        H  0.85338344  0.82727898  0.99787624     0.08420
H544        H  0.79084336  0.73866365  0.99756399     0.07250
N545        N  0.14042156  0.05194110  0.99401088    -0.27130
N546        N  0.16816513  0.07031571  0.99623746    -0.34990
C547        C  0.15921271  0.10318846  0.99918044     0.01210
C548        C  0.12404816  0.10510684  0.99921353     0.07230
C549        C  0.11319202  0.07213299  0.99581504    -0.05870
H550        H  0.17682647  0.12380491  0.00228169     0.07900
H551        H  0.08726581  0.06330228  0.99512610     0.09100
Cu552      Cu  0.21546664  0.04705580  0.99749259     0.44170
Cu553      Cu  0.14010691  0.00004673  0.99094610     0.42070
Cu554      Cu  0.21514634  0.95133995  0.99824789     0.43880
N555        N  0.25797098  0.01576602  0.99923565    -0.34520
N556        N  0.25795179  0.98215969  0.99948817    -0.28770
C557        C  0.29022532  0.97105588  0.00026913    -0.04870
C558        C  0.31143135  0.99885170  0.00052038     0.07340
C559        C  0.29020365  0.02671210  0.99988871     0.01140
H560        H  0.29767257  0.94465311  0.00039180     0.08790
H561        H  0.29760893  0.05308406  0.99962329     0.07870
N562        N  0.16739679  0.92912321  0.99648336    -0.35970
N563        N  0.13999105  0.94807197  0.99345449    -0.28150
C564        C  0.11242470  0.92844992  0.99481129    -0.03390
C565        C  0.12263463  0.89528119  0.99912112     0.05220
C566        C  0.15782022  0.89644588  0.99971652     0.03310
H567        H  0.08670204  0.93789197  0.99342456     0.08420
H568        H  0.17498079  0.87544475  0.00354251     0.07250
N569        N  0.96926234  0.22521254  0.99183733    -0.27130
N570        N  0.98753639  0.25261892  0.99641337    -0.34990
C571        C  0.02016023  0.24328290  0.00059569     0.01210
C572        C  0.02192574  0.20820364  0.99908809     0.07230
C573        C  0.98923581  0.19780893  0.99331401    -0.05870
H574        H  0.04063859  0.26048372  0.00559472     0.07900
H575        H  0.98039372  0.17205712  0.99088617     0.09100
Cu576      Cu  0.96416482  0.29977390  0.99897658     0.44170
Cu577      Cu  0.91752034  0.22532878  0.98684683     0.41990
Cu578      Cu  0.86826652  0.29884992  0.00002786     0.43880
N579        N  0.93249711  0.34200302  0.00072641    -0.34520
N580        N  0.89886330  0.34180760  0.00121144    -0.28770
C581        C  0.88757515  0.37401833  0.00168706    -0.04870
C582        C  0.91528356  0.39535055  0.00145052     0.07340
C583        C  0.94326883  0.37427174  0.00088584     0.01140
H584        H  0.86111619  0.38132795  0.00182595     0.08790
H585        H  0.96962095  0.38180669  0.00030478     0.07870
N586        N  0.84645291  0.25114013  0.99590316    -0.35970
N587        N  0.86555452  0.22441025  0.99017937    -0.28150
C588        C  0.84631590  0.19655802  0.99035771    -0.03390
C589        C  0.81324976  0.20581627  0.99679588     0.05220
C590        C  0.81406865  0.24081970  0.99983419     0.03310
H591        H  0.85606026  0.17120809  0.98700231     0.08420
H592        H  0.79312710  0.25722874  0.00591948     0.07250
N593        N  0.69018398  0.94714546  0.00372573    -0.27130
N594        N  0.66283011  0.92828568  0.00131553    -0.34990
C595        C  0.67250037  0.89554501  0.49865546     0.01210
C596        C  0.70771550  0.89434785  0.99900703     0.07230
C597        C  0.71781201  0.92751674  0.00261778    -0.05870
H598        H  0.65537919  0.87453476  0.49546267     0.07900
H599        H  0.74348325  0.93696223  0.00379269     0.09100
Cu600      Cu  0.61546251  0.95151074  0.99998614     0.44170
Cu601      Cu  0.68953548  0.99891139  0.00547331     0.41990
Cu602      Cu  0.61568483  0.04846168  0.00025875     0.43880
N603        N  0.57319808  0.98330019  0.99944110    -0.34520
N604        N  0.57312543  0.01694228  0.99944954    -0.28770
C605        C  0.54076793  0.02788979  0.99935325    -0.04870
C606        C  0.51963857  0.00001655  0.99933787     0.07340
C607        C  0.54097827  0.97225910  0.99937624     0.01140
H608        H  0.53320630  0.05425846  0.99951328     0.08790
H609        H  0.53366678  0.94586076  0.99949747     0.07870
N610        N  0.66372793  0.07040198  0.00241443    -0.35970
N611        N  0.69067309  0.05070958  0.00437440    -0.28150
C612        C  0.71860497  0.06965500  0.00561010    -0.03390
C613        C  0.70934117  0.10345670  0.00468419     0.05220
C614        C  0.67407287  0.10305555  0.00244854     0.03310
H615        H  0.74394695  0.05922721  0.00677130     0.08420
H616        H  0.65719833  0.12466142  0.00143562     0.07250
C617        C  0.76574012  0.12642806  0.51823275    -0.21150
C618        C  0.73349549  0.13228690  0.00589041    -0.09190
C619        C  0.72636661  0.16452447  0.99345908     0.29670
C620        C  0.75192083  0.18929938  0.99173911    -0.21150
C621        C  0.78479038  0.18210218  0.00212951    -0.09200
C622        C  0.79106354  0.15075102  0.51626146     0.29670
F623        F  0.82184569  0.14336933  0.52822534    -0.19730
H624        H  0.77182717  0.10259051  0.52917443     0.18040
H625        H  0.74649140  0.21345281  0.98101444     0.18040
F626        F  0.69550724  0.17159423  0.98160031    -0.19720
C627        C  0.08246065  0.19135286  0.98946944    -0.21150
C628        C  0.05113628  0.18537442  0.00387845    -0.09190
C629        C  0.04640091  0.15510228  0.52022314     0.29670
C630        C  0.07130215  0.13009261  0.51994840    -0.21150
C631        C  0.10152360  0.13467307  0.00355012    -0.09200
C632        C  0.10764404  0.16607980  0.98925723     0.29670
F633        F  0.13662020  0.17131813  0.97316955    -0.19730
H634        H  0.08656347  0.21460363  0.97681231     0.18040
H635        H  0.06641335  0.10647700  0.53182352     0.18040
F636        F  0.01717502  0.14920383  0.53579387    -0.19720
C637        C  0.78603673  0.84492219  0.97821561    -0.21150
C638        C  0.78119456  0.81434116  0.99400145    -0.09190
C639        C  0.74974843  0.80826674  0.50825723     0.29670
C640        C  0.72467474  0.83368992  0.50850834    -0.21150
C641        C  0.73087173  0.86525272  0.99461797    -0.09200
C642        C  0.76131911  0.87005143  0.97845227     0.29670
F643        F  0.76757902  0.89937826  0.96318648    -0.19730
H644        H  0.80953960  0.84985622  0.96616402     0.18040
H645        H  0.70128023  0.82943009  0.52092996     0.18040
F646        F  0.74408200  0.77889943  0.52359823    -0.19720
C647        C  0.04505154  0.84564460  0.52144169    -0.21150
C648        C  0.04989198  0.81502015  0.00595879    -0.09190
C649        C  0.08121006  0.80911540  0.99136438     0.29670
C650        C  0.10601650  0.83464401  0.99050978    -0.21150
C651        C  0.09969533  0.86617549  0.00406246    -0.09200
C652        C  0.06949629  0.87091710  0.52052552     0.29670
F653        F  0.06320245  0.90024962  0.53543624    -0.19730
H654        H  0.02171801  0.85046731  0.53376394     0.18040
H655        H  0.12928034  0.83048585  0.97788381     0.18040
F656        F  0.08696761  0.77981806  0.97628411    -0.19720
C657        C  0.40351791  0.02760506  0.89076596    -0.21150
C658        C  0.41554159  0.99912889  0.90678593    -0.09190
C659        C  0.42765618  0.97100505  0.89040433     0.29670
C660        C  0.42810076  0.97175836  0.85874590    -0.21150
C661        C  0.41572735  0.00005508  0.84297635    -0.09200
C662        C  0.40323319  0.02793724  0.85910964     0.29670
F663        F  0.39143543  0.05572003  0.84421511    -0.19730
H664        H  0.39398079  0.04952967  0.90275897     0.18040
H665        H  0.43770369  0.95003840  0.84647837     0.18040
F666        F  0.43960725  0.94301143  0.90487438    -0.19720
C667        C  0.38888444  0.98395378  0.60908209    -0.21150
C668        C  0.41558621  0.99929108  0.59306049    -0.09190
C669        C  0.44217831  0.01432980  0.60897431     0.29670
C670        C  0.44216493  0.01365878  0.64062802    -0.21150
C671        C  0.41518664  0.99877755  0.65683988    -0.09200
C672        C  0.38833524  0.98408687  0.64073976     0.29670
F673        F  0.36191250  0.96926881  0.65552496    -0.19730
H674        H  0.36820602  0.97227846  0.59701425     0.18040
H675        H  0.46305650  0.02520687  0.65248700     0.18040
F676        F  0.46851651  0.02891429  0.59387803    -0.19720
C677        C  0.94164538  0.48328292  0.89118438    -0.21150
C678        C  0.91548529  0.49957943  0.90725967    -0.09190
C679        C  0.88957262  0.51613789  0.89107718     0.29670
C680        C  0.89018771  0.51662144  0.85942149    -0.21150
C681        C  0.91598284  0.49978611  0.84350175    -0.09200
C682        C  0.94166942  0.48295183  0.85953065     0.29670
F683        F  0.96718133  0.46693932  0.84454147    -0.19730
H684        H  0.96183791  0.47038158  0.90316208     0.18040
H685        H  0.87022332  0.52970723  0.84728408     0.18040
F686        F  0.86410163  0.53250132  0.90580648    -0.19720
C687        C  0.89982102  0.52600277  0.60909693    -0.21150
C688        C  0.91611356  0.49975071  0.59345967    -0.09190
C689        C  0.93222762  0.47376196  0.60979224     0.29670
C690        C  0.93159716  0.47387120  0.64145909    -0.21150
C691        C  0.91573142  0.50040346  0.65726135    -0.09200
C692        C  0.90003160  0.52669515  0.64075430     0.29670
F693        F  0.88423062  0.55263758  0.65516647    -0.19730
H694        H  0.88732482  0.54622771  0.59672712     0.18040
H695        H  0.94391640  0.45341496  0.65365356     0.18040
F696        F  0.94779095  0.44786804  0.59509966    -0.19720
C697        C  0.26884085  0.37573305  0.73686940    -0.21150
C698        C  0.23484392  0.36915516  0.74471998    -0.09190
C699        C  0.22603716  0.33569128  0.75317398     0.29670
C700        C  0.25114305  0.31033340  0.75510048    -0.21150
C701        C  0.28528673  0.31796584  0.74891359    -0.09200
C702        C  0.29362049  0.35081020  0.73902939     0.29670
F703        F  0.32584284  0.35905315  0.73093514    -0.19730
H704        H  0.27692535  0.40037173  0.72898289     0.18040
H705        H  0.24408508  0.28506682  0.76243579     0.18040
F706        F  0.19360147  0.32741692  0.76026549    -0.19720
C707        C  0.22391419  0.66701050  0.74272056    -0.21150
C708        C  0.23097215  0.63472612  0.75479520    -0.09190
C709        C  0.26247665  0.62885092  0.76857908     0.29670
C710        C  0.28734616  0.65370288  0.76797713    -0.21150
C711        C  0.28146846  0.68507634  0.75386270    -0.09200
C712        C  0.24906033  0.69217838  0.74223717     0.29670
F713        F  0.24248643  0.72235074  0.72855512    -0.19730
H714        H  0.19971921  0.67208066  0.73214928     0.18040
H715        H  0.31171887  0.64799400  0.77797287     0.18040
F716        F  0.26960280  0.59874214  0.78220146    -0.19720
C717        C  0.60677512  0.66477429  0.74398345    -0.21150
C718        C  0.59883505  0.63139304  0.75274060    -0.09190
C719        C  0.56621814  0.62434752  0.76407024     0.29670
C720        C  0.54140868  0.64943362  0.76441527    -0.21150
C721        C  0.54829638  0.68219101  0.75347386    -0.09200
C722        C  0.58163495  0.69012800  0.74427706     0.29670
F723        F  0.58940085  0.72156373  0.73377618    -0.19730
H724        H  0.63185442  0.67076757  0.73539610     0.18040
H725        H  0.51636949  0.64285227  0.77272336     0.18040
F726        F  0.55804391  0.59296950  0.77453183    -0.19720
C727        C  0.60599187  0.33533817  0.74434639    -0.21150
C728        C  0.59748603  0.36954919  0.74886354    -0.09190
C729        C  0.56410057  0.37769634  0.75735538     0.29670
C730        C  0.53956268  0.35267100  0.75973404    -0.21150
C731        C  0.54715813  0.31843391  0.75400616    -0.09200
C732        C  0.58110488  0.30990727  0.74679818     0.29670
F733        F  0.59045296  0.27733113  0.74189165    -0.19730
H734        H  0.63168473  0.32839136  0.73814562     0.18040
H735        H  0.51442362  0.36087564  0.76605045     0.18040
F736        F  0.55493257  0.40996939  0.76405299    -0.19720
loop_ 
_geom_bond_atom_site_label_1 
_geom_bond_atom_site_label_2 
_geom_bond_distance 
_geom_bond_site_symmetry_2 
_ccdc_geom_bond_type 
N1            N2   1.319       .  A
N1            C5   1.338       .  A
N1           Cu9   2.057       .  S
N2            C3   1.351       .  A
N2           Cu8   2.078       .  S
C3            C4   1.389       .  A
C3            H6   1.082       .  S
C4            C5   1.382       .  A
C4          C350   1.479       .  S
C5            H7   1.082       .  S
Cu8          N11   2.082       .  S
Cu9          N19   2.056       .  S
Cu10         N12   2.086       .  S
Cu10         N18   2.083       .  S
N11          N12   1.327       .  A
N11          C15   1.344       .  A
N12          C13   1.346       .  A
C13          C14   1.382       .  A
C13          H16   1.082       .  S
C14          C15   1.381       .  A
C14         C123   1.468       .  S
C15          H17   1.082       .  S
N18          N19   1.319       .  A
N18          C22   1.352       .  A
N19          C20   1.337       .  A
C20          C21   1.383       .  A
C20          H23   1.081       .  S
C21          C22   1.391       .  A
C21         C360   1.484       .  S
C22          H24   1.082       .  S
N25          N26   1.319       .  A
N25          C29   1.337       .  A
N25         Cu33   2.051       .  S
N26          C27   1.351       .  A
N26         Cu32   2.077       .  S
C27          C28   1.389       .  A
C27          H30   1.082       .  S
C28          C29   1.381       .  A
C28         C343   1.478       .  S
C29          H31   1.082       .  S
Cu32         N35   2.081       .  S
Cu33         N43   2.051       .  S
Cu34         N36   2.088       .  S
Cu34         N42   2.084       .  S
N35          N36   1.327       .  A
N35          C39   1.345       .  A
N36          C37   1.345       .  A
C37          C38   1.382       .  A
C37          H40   1.082       .  S
C38          C39   1.380       .  A
C38         C151   1.468       .  S
C39          H41   1.082       .  S
N42          N43   1.319       .  A
N42          C46   1.352       .  A
N43          C44   1.337       .  A
C44          C45   1.382       .  A
C44          H47   1.082       .  S
C45          C46   1.392       .  A
C45         C353   1.483       .  S
C46          H48   1.082       .  S
N49          N50   1.318       .  A
N49          C53   1.336       .  A
N49         Cu57   2.047       .  S
N50          C51   1.352       .  A
N50         Cu56   2.083       .  S
C51          C52   1.392       .  A
C51          H54   1.082       .  S
C52          C53   1.382       .  A
C52         C333   1.482       .  S
C53          H55   1.081       .  S
Cu56         N59   2.088       .  S
Cu57         N67   2.047       .  S
Cu58         N60   2.092       .  S
Cu58         N66   2.087       .  S
N59          N60   1.328       .  A
N59          C63   1.345       .  A
N60          C61   1.346       .  A
C61          C62   1.381       .  A
C61          H64   1.082       .  S
C62          C63   1.380       .  A
C62         C152   1.468       .  S
C63          H65   1.082       .  S
N66          N67   1.316       .  A
N66          C70   1.353       .  A
N67          C68   1.334       .  A
C68          C69   1.388       .  A
C68          H71   1.079       .  S
C69          C70   1.400       .  A
C69         C363   1.498       .  S
C70          H72   1.080       .  S
N73          N74   1.318       .  A
N73          C77   1.336       .  A
N73         Cu81   2.045       .  S
N74          C75   1.351       .  A
N74         Cu80   2.079       .  S
C75          C76   1.390       .  A
C75          H78   1.082       .  S
C76          C77   1.380       .  A
C76         C340   1.477       .  S
C77          H79   1.082       .  S
Cu80         N83   2.083       .  S
Cu81         N91   2.045       .  S
Cu82         N84   2.090       .  S
Cu82         N90   2.086       .  S
N83          N84   1.328       .  A
N83          C87   1.345       .  A
N84          C85   1.345       .  A
C85          C86   1.381       .  A
C85          H88   1.082       .  S
C86          C87   1.380       .  A
C86         C124   1.467   1_455  S
C87          H89   1.082       .  S
N90          N91   1.316       .  A
N90          C94   1.352       .  A
N91          C92   1.334       .  A
C92          C93   1.387       .  A
C92          H95   1.080       .  S
C93          C94   1.399       .  A
C93         C330   1.496       .  S
C94          H96   1.080       .  S
O97         C107   1.277       .  A
O97        Cu473   2.010       .  S
O98         C108   1.278       .  A
O98        Cu105   2.010       .  S
O99         C109   1.278       .  A
O99        Cu105   2.013       .  S
O100        C110   1.277       .  A
O100       Cu105   2.001       .  S
O101        C110   1.278       .  A
O101       Cu106   2.015       .  S
O102        C109   1.277       .  A
O102       Cu106   2.002       .  S
O103        C108   1.278       .  A
O103       Cu106   2.008       .  S
O104        C107   1.277       .  A
O104       Cu474   2.008       .  S
Cu105       O465   2.010       .  S
Cu105      Cu106   2.376       .  S
Cu106       O472   2.008       .  S
C107        C320   1.469       .  S
C108        C310   1.477       .  S
C109        C166   1.467       .  S
C110        C214   1.468       .  S
O111        C121   1.277       .  A
O111       Cu119   2.007       .  S
O112        C122   1.278       .  A
O112       Cu119   2.010       .  S
O113        C123   1.277       .  A
O113       Cu119   2.002       .  S
O114        C124   1.278       .  A
O114       Cu119   2.013       .  S
O115        C124   1.276       .  A
O115       Cu120   2.001       .  S
O116        C123   1.278       .  A
O116       Cu120   2.014       .  S
O117        C122   1.278       .  A
O117       Cu120   2.011       .  S
O118        C121   1.277       .  A
O118       Cu120   2.008       .  S
Cu119      Cu120   2.376       .  S
C121        C313   1.468       .  S
C122        C323   1.479       .  S
O125        C135   1.277       .  A
O125       Cu501   2.007       .  S
O126        C136   1.278       .  A
O126       Cu133   2.007       .  S
O127        C137   1.278       .  A
O127       Cu133   2.012       .  S
O128        C138   1.277       .  A
O128       Cu133   2.007       .  S
O129        C138   1.278   1_545  A
O129       Cu134   2.009       .  S
O130        C137   1.277   1_545  A
O130       Cu134   2.006       .  S
O131        C136   1.279   1_545  A
O131       Cu134   2.010       .  S
O132        C135   1.277   1_545  A
O132       Cu502   2.010   1_554  S
Cu133       O493   2.007       .  S
Cu133      Cu134   2.375   1_565  S
Cu134       O500   2.010       .  S
C135        C300   1.468       .  S
C136        C290   1.481       .  S
C137        C238   1.468   1_565  S
C138        C190   1.468       .  S
O139        C149   1.277       .  A
O139       Cu147   2.008   1_545  S
O140        C150   1.278       .  A
O140       Cu147   2.007       .  S
O141        C151   1.278       .  A
O141       Cu147   2.011       .  S
O142        C152   1.278       .  A
O142       Cu147   2.009   1_545  S
O143        C152   1.277       .  A
O143       Cu148   2.008   1_545  S
O144        C151   1.277       .  A
O144       Cu148   2.005       .  S
O145        C150   1.278       .  A
O145       Cu148   2.010       .  S
O146        C149   1.277   1_565  A
O146       Cu148   2.010       .  S
Cu147      Cu148   2.375       .  S
C149        C293   1.467       .  S
C150        C303   1.478       .  S
N153        N154   1.319       .  A
N153        C157   1.336       .  A
N153       Cu161   2.048       .  S
N154        C155   1.352   1_655  A
N154       Cu160   2.082       .  S
C155        C156   1.392       .  A
C155        H158   1.082       .  S
C156        C157   1.381   1_455  A
C156        C280   1.481       .  S
C157        H159   1.082       .  S
Cu160       N163   2.086       .  S
Cu161       N171   2.048       .  S
Cu162       N164   2.085       .  S
Cu162       N538   2.081       .  S
N163        N164   1.327       .  A
N163        C167   1.346       .  A
N164        C165   1.344       .  A
C165        C166   1.381       .  A
C165        H168   1.082       .  S
C166        C167   1.381       .  A
C167        H169   1.082       .  S
N170        N539   1.318   1_554  A
N170        C542   1.352   1_554  A
N170       Cu530   2.081       .  S
N171        N538   1.318       .  A
N171        C172   1.336       .  A
C172        C173   1.381       .  A
C172        H175   1.082       .  S
C173        C174   1.391       .  A
C173        C270   1.480       .  S
C174        N538   1.352       .  A
C174        H176   1.082       .  S
N177        N178   1.319       .  A
N177        C181   1.338       .  A
N177       Cu185   2.054       .  S
N178        C179   1.351       .  A
N178       Cu184   2.078       .  S
C179        C180   1.389       .  A
C179        H182   1.082       .  S
C180        C181   1.381       .  A
C180        C263   1.477       .  S
C181        H183   1.082       .  S
Cu184       N187   2.081       .  S
Cu185       N195   2.054   1_545  S
Cu186       N188   2.085       .  S
Cu186       N194   2.082       .  S
N187        N188   1.327   1_545  A
N187        C191   1.345       .  A
N188        C189   1.346       .  A
C189        C190   1.382       .  A
C189        H192   1.082       .  S
C190        C191   1.380   1_565  A
C191        H193   1.082       .  S
N194        N195   1.320       .  A
N194        C198   1.351       .  A
N195        C196   1.338       .  A
C196        C197   1.381       .  A
C196        H199   1.082       .  S
C197        C198   1.389       .  A
C197        C283   1.478       .  S
C198        H200   1.082       .  S
N201        N202   1.319       .  A
N201        C205   1.338       .  A
N201       Cu209   2.054       .  S
N202        C203   1.351   1_655  A
N202       Cu208   2.078       .  S
C203        C204   1.388       .  A
C203        H206   1.082       .  S
C204        C205   1.380   1_455  A
C204        C260   1.476       .  S
C205        H207   1.082       .  S
Cu208       N211   2.082       .  S
Cu209       N219   2.054       .  S
Cu210       N212   2.086       .  S
Cu210       N218   2.083       .  S
N211        N212   1.327       .  A
N211        C215   1.344       .  A
N212        C213   1.346       .  A
C213        C214   1.382       .  A
C213        H216   1.082       .  S
C214        C215   1.381       .  A
C215        H217   1.082       .  S
N218        N219   1.320       .  A
N218        C222   1.351       .  A
N219        C220   1.338       .  A
C220        C221   1.382       .  A
C220        H223   1.082       .  S
C221        C222   1.390       .  A
C221        C253   1.480       .  S
C222        H224   1.082       .  S
N225        N226   1.318       .  A
N225        C229   1.336       .  A
N225       Cu233   2.046       .  S
N226        C595   1.352       .  A
N226       Cu232   2.080       .  S
C227        N594   1.352   1_556  A
C227        C596   1.390       .  A
C227        H230   1.082       .  S
C228        C229   1.380       .  A
C228        C595   1.390       .  A
C228        C273   1.478       .  S
C229        H231   1.082       .  S
Cu232       N235   2.084       .  S
Cu233       N243   2.046   1_565  S
Cu234       N236   2.093       .  S
Cu234       N242   2.089       .  S
N235        N236   1.328   1_565  A
N235        C239   1.345       .  A
N236        C237   1.346       .  A
C237        C238   1.382       .  A
C237        H240   1.082       .  S
C238        C239   1.380   1_545  A
C239        H241   1.082       .  S
N242        N243   1.318       .  A
N242        C246   1.353       .  A
N243        C244   1.335       .  A
C244        C245   1.383       .  A
C244        H247   1.081       .  S
C245        C246   1.395       .  A
C245        C250   1.488       .  S
C246        H248   1.081       .  S
C249        C254   1.389       .  A
C249        C618   1.405       .  A
C249        H256   1.082       .  S
C250        C251   1.411       .  A
C250        C617   1.405       .  A
C251        C252   1.408       .  A
C251        F258   1.356       .  S
C252        C253   1.406       .  A
C252        H257   1.083       .  S
C253        C622   1.404       .  A
C254        C621   1.404       .  A
C254        F255   1.358       .  S
C259        C260   1.405       .  A
C259        C264   1.406       .  A
C259        H266   1.083       .  S
C260        C629   1.405       .  A
C261        C262   1.391       .  A
C261        C628   1.404       .  A
C261        F268   1.358       .  S
C262        C631   1.402       .  A
C262        H267   1.083       .  S
C263        C264   1.408       .  A
C263        C630   1.402       .  A
C264        F265   1.357       .  S
C269        C270   1.402       .  A
C269        C274   1.389       .  A
C269        H276   1.083       .  S
C270        C639   1.409       .  A
C271        C272   1.407       .  A
C271        C638   1.409   1_554  A
C271        F278   1.357       .  S
C272        C641   1.406   1_554  A
C272        H277   1.083       .  S
C273        C274   1.405       .  A
C273        C640   1.406       .  A
C274        F275   1.358       .  S
C279        C284   1.390       .  A
C279        C648   1.403       .  A
C279        H286   1.083       .  S
C280        C281   1.409       .  A
C280        C647   1.403       .  A
C281        C282   1.407       .  A
C281        F288   1.357       .  S
C282        C283   1.406       .  A
C282        H287   1.083       .  S
C283        C652   1.405       .  A
C284        C651   1.405       .  A
C284        F285   1.358       .  S
C289        C290   1.407   1_545  A
C289        C294   1.398       .  A
C289        H296   1.083       .  S
C290        C291   1.410       .  A
C291        C292   1.398       .  A
C291        F298   1.357       .  S
C292        C293   1.400   1_565  A
C292        H297   1.084       .  S
C293        C294   1.402       .  A
C294        F295   1.357       .  S
C299        C300   1.401       .  A
C299        C304   1.398       .  A
C299        H306   1.084       .  S
C300        C301   1.403   1_565  A
C301        C302   1.398       .  A
C301        F308   1.358       .  S
C302        C303   1.406   1_545  A
C302        H307   1.083       .  S
C303        C304   1.409       .  A
C304        F305   1.357       .  S
C309        C310   1.405       .  A
C309        C314   1.398       .  A
C309        H316   1.083       .  S
C310        C311   1.408       .  A
C311        C312   1.398       .  A
C311        F318   1.357       .  S
C312        C313   1.401       .  A
C312        H317   1.084       .  S
C313        C314   1.403       .  A
C314        F315   1.358       .  S
C319        C320   1.401       .  A
C319        C324   1.399       .  A
C319        H326   1.083       .  S
C320        C321   1.403       .  A
C321        C322   1.399       .  A
C321        F328   1.358       .  S
C322        C323   1.406       .  A
C322        H327   1.083       .  S
C323        C324   1.408       .  A
C324        F325   1.357       .  S
C329        C330   1.407       .  A
C329        C334   1.388       .  A
C329        H336   1.079       .  S
C330        C331   1.414       .  A
C331        C332   1.409       .  A
C331        F338   1.355       .  S
C332        C333   1.405       .  A
C332        H337   1.083       .  S
C333        C334   1.404       .  A
C334        F335   1.358       .  S
C339        C340   1.406       .  A
C339        C344   1.406       .  A
C339        H346   1.083       .  S
C340        C341   1.406       .  A
C341        C342   1.389       .  A
C341        F348   1.358       .  S
C342        C343   1.402       .  A
C342        H347   1.083       .  S
C343        C344   1.408       .  A
C344        F345   1.357       .  S
C349        C350   1.406       .  A
C349        C354   1.407       .  A
C349        H356   1.083       .  S
C350        C351   1.405       .  A
C351        C352   1.390       .  A
C351        F358   1.358       .  S
C352        C353   1.404       .  A
C352        H357   1.083       .  S
C353        C354   1.409       .  A
C354        F355   1.357       .  S
C359        C360   1.406       .  A
C359        C364   1.409       .  A
C359        H366   1.083       .  S
C360        C361   1.404       .  A
C361        C362   1.388       .  A
C361        F368   1.357       .  S
C362        C363   1.408       .  A
C362        H367   1.078       .  S
C363        C364   1.414       .  A
C364        F365   1.355       .  S
N369        N370   1.319       .  A
N369        C373   1.338       .  A
N369       Cu377   2.057       .  S
N370        C371   1.351       .  A
N370       Cu376   2.078       .  S
C371        C372   1.389       .  A
C371        H374   1.082       .  S
C372        C373   1.382       .  A
C372        C718   1.479       .  S
C373        H375   1.082       .  S
Cu376       N379   2.082       .  S
Cu377       N387   2.056       .  S
Cu378       N380   2.086       .  S
Cu378       N386   2.083       .  S
N379        N380   1.327       .  A
N379        C383   1.344       .  A
N380        C381   1.346       .  A
C381        C382   1.382       .  A
C381        H384   1.082       .  S
C382        C383   1.381       .  A
C382        C491   1.468       .  S
C383        H385   1.082       .  S
N386        N387   1.319       .  A
N386        C390   1.352       .  A
N387        C388   1.337       .  A
C388        C389   1.383       .  A
C388        H391   1.081       .  S
C389        C390   1.391       .  A
C389        C728   1.484       .  S
C390        H392   1.082       .  S
N393        N394   1.319       .  A
N393        C397   1.337       .  A
N393       Cu401   2.051       .  S
N394        C395   1.351       .  A
N394       Cu400   2.077       .  S
C395        C396   1.389       .  A
C395        H398   1.082       .  S
C396        C397   1.381       .  A
C396        C711   1.478       .  S
C397        H399   1.082       .  S
Cu400       N403   2.081       .  S
Cu401       N411   2.051       .  S
Cu402       N404   2.088       .  S
Cu402       N410   2.084       .  S
N403        N404   1.327       .  A
N403        C407   1.345       .  A
N404        C405   1.345       .  A
C405        C406   1.382       .  A
C405        H408   1.082       .  S
C406        C407   1.380       .  A
C406        C519   1.468       .  S
C407        H409   1.082       .  S
N410        N411   1.319       .  A
N410        C414   1.352       .  A
N411        C412   1.337       .  A
C412        C413   1.382       .  A
C412        H415   1.082       .  S
C413        C414   1.392       .  A
C413        C721   1.483       .  S
C414        H416   1.082       .  S
N417        N418   1.318       .  A
N417        C421   1.336       .  A
N417       Cu425   2.047       .  S
N418        C419   1.352       .  A
N418       Cu424   2.083       .  S
C419        C420   1.392       .  A
C419        H422   1.082       .  S
C420        C421   1.382       .  A
C420        C701   1.482       .  S
C421        H423   1.081       .  S
Cu424       N427   2.088       .  S
Cu425       N435   2.047       .  S
Cu426       N428   2.092       .  S
Cu426       N434   2.087       .  S
N427        N428   1.328       .  A
N427        C431   1.345       .  A
N428        C429   1.346       .  A
C429        C430   1.381       .  A
C429        H432   1.082       .  S
C430        C431   1.380       .  A
C430        C520   1.468       .  S
C431        H433   1.082       .  S
N434        N435   1.316       .  A
N434        C438   1.353       .  A
N435        C436   1.334       .  A
C436        C437   1.388       .  A
C436        H439   1.079       .  S
C437        C438   1.400       .  A
C437        C731   1.498       .  S
C438        H440   1.080       .  S
N441        N442   1.318       .  A
N441        C445   1.336       .  A
N441       Cu449   2.045       .  S
N442        C443   1.351       .  A
N442       Cu448   2.079       .  S
C443        C444   1.390       .  A
C443        H446   1.082       .  S
C444        C445   1.380       .  A
C444        C708   1.477       .  S
C445        H447   1.082       .  S
Cu448       N451   2.083       .  S
Cu449       N459   2.045       .  S
Cu450       N452   2.090       .  S
Cu450       N458   2.086       .  S
N451        N452   1.328       .  A
N451        C455   1.345       .  A
N452        C453   1.345       .  A
C453        C454   1.381       .  A
C453        H456   1.082       .  S
C454        C455   1.380       .  A
C454        C492   1.467   1_455  S
C455        H457   1.082       .  S
N458        N459   1.316       .  A
N458        C462   1.352       .  A
N459        C460   1.334       .  A
C460        C461   1.387       .  A
C460        H463   1.080       .  S
C461        C462   1.399       .  A
C461        C698   1.496       .  S
C462        H464   1.080       .  S
O465        C475   1.277       .  A
O466        C476   1.278       .  A
O466       Cu473   2.009   1_556  S
O467        C477   1.278       .  A
O467       Cu473   2.013   1_556  S
O468        C478   1.277       .  A
O468       Cu473   2.001       .  S
O469        C478   1.278       .  A
O469       Cu474   2.015       .  S
O470        C477   1.277   1_554  A
O470       Cu474   2.002       .  S
O471        C476   1.278       .  A
O471       Cu474   2.008   1_556  S
O472        C475   1.277       .  A
Cu473      Cu474   2.376       .  S
C475        C688   1.469       .  S
C476        C678   1.477       .  S
C477        C534   1.467       .  S
C478        C582   1.467       .  S
O479        C489   1.277       .  A
O479       Cu487   2.007       .  S
O480        C490   1.278       .  A
O480       Cu487   2.010       .  S
O481        C491   1.277       .  A
O481       Cu487   2.002       .  S
O482        C492   1.278       .  A
O482       Cu487   2.013       .  S
O483        C492   1.276       .  A
O483       Cu488   2.001       .  S
O484        C491   1.278       .  A
O484       Cu488   2.014       .  S
O485        C490   1.278       .  A
O485       Cu488   2.011       .  S
O486        C489   1.277       .  A
O486       Cu488   2.008       .  S
Cu487      Cu488   2.376       .  S
C489        C681   1.468       .  S
C490        C691   1.479       .  S
O493        C503   1.277       .  A
O494        C504   1.278       .  A
O494       Cu501   2.007   1_556  S
O495        C505   1.278   1_554  A
O495       Cu501   2.012       .  S
O496        C506   1.277       .  A
O496       Cu501   2.007       .  S
O497        C506   1.278   1_545  A
O497       Cu502   2.009   1_554  S
O498        C505   1.277   1_545  A
O498       Cu502   2.006       .  S
O499        C504   1.279   1_545  A
O499       Cu502   2.010       .  S
O500        C503   1.277   1_545  A
Cu501      Cu502   2.375   1_564  S
C503        C668   1.468       .  S
C504        C658   1.481       .  S
C505        C606   1.468   1_565  S
C506        C558   1.468       .  S
O507        C517   1.277       .  A
O507       Cu515   2.008   1_545  S
O508        C518   1.278       .  A
O508       Cu515   2.007       .  S
O509        C519   1.278       .  A
O509       Cu515   2.011       .  S
O510        C520   1.278       .  A
O510       Cu515   2.009   1_545  S
O511        C520   1.277       .  A
O511       Cu516   2.008   1_545  S
O512        C519   1.277       .  A
O512       Cu516   2.005       .  S
O513        C518   1.278       .  A
O513       Cu516   2.010       .  S
O514        C517   1.277   1_565  A
O514       Cu516   2.010       .  S
Cu515      Cu516   2.375       .  S
C517        C661   1.467       .  S
C518        C671   1.478       .  S
N521        N522   1.319       .  A
N521        C525   1.336       .  A
N521       Cu529   2.048       .  S
N522        C523   1.352   1_655  A
N522       Cu528   2.082   1_554  S
C523        C524   1.392       .  A
C523        H526   1.082       .  S
C524        C525   1.381   1_455  A
C524        C648   1.481       .  S
C525        H527   1.082       .  S
Cu528       N531   2.086       .  S
Cu529       N539   2.048   1_554  S
Cu530       N532   2.085   1_554  S
N531        N532   1.327       .  A
N531        C535   1.346       .  A
N532        C533   1.344       .  A
C533        C534   1.381       .  A
C533        H536   1.082   1_556  S
C534        C535   1.381       .  A
C535        H537   1.082       .  S
N539        C540   1.336       .  A
C540        C541   1.381       .  A
C540        H543   1.082       .  S
C541        C542   1.391       .  A
C541        C638   1.480       .  S
C542        H544   1.082       .  S
N545        N546   1.319       .  A
N545        C549   1.338       .  A
N545       Cu553   2.054       .  S
N546        C547   1.351       .  A
N546       Cu552   2.078       .  S
C547        C548   1.389       .  A
C547        H550   1.082   1_556  S
C548        C549   1.381       .  A
C548        C631   1.477   1_556  S
C549        H551   1.082       .  S
Cu552       N555   2.081       .  S
Cu553       N563   2.054   1_545  S
Cu554       N556   2.085       .  S
Cu554       N562   2.082       .  S
N555        N556   1.327   1_545  A
N555        C559   1.345       .  A
N556        C557   1.346   1_556  A
C557        C558   1.382       .  A
C557        H560   1.082       .  S
C558        C559   1.380   1_564  A
C559        H561   1.082       .  S
N562        N563   1.320       .  A
N562        C566   1.351       .  A
N563        C564   1.338       .  A
C564        C565   1.381       .  A
C564        H567   1.082       .  S
C565        C566   1.389       .  A
C565        C651   1.478   1_556  S
C566        H568   1.082   1_556  S
N569        N570   1.319       .  A
N569        C573   1.338       .  A
N569       Cu577   2.054       .  S
N570        C571   1.351   1_656  A
N570       Cu576   2.078       .  S
C571        C572   1.388   1_554  A
C571        H574   1.082       .  S
C572        C573   1.380   1_455  A
C572        C628   1.476   1_556  S
C573        H575   1.082       .  S
Cu576       N579   2.082   1_556  S
Cu577       N587   2.054       .  S
Cu578       N580   2.085       .  S
Cu578       N586   2.083   1_554  S
N579        N580   1.327       .  A
N579        C583   1.344       .  A
N580        C581   1.346       .  A
C581        C582   1.382       .  A
C581        H584   1.082       .  S
C582        C583   1.381       .  A
C583        H585   1.082       .  S
N586        N587   1.320       .  A
N586        C590   1.351       .  A
N587        C588   1.338       .  A
C588        C589   1.382       .  A
C588        H591   1.082       .  S
C589        C590   1.390       .  A
C589        C621   1.480   1_556  S
C590        H592   1.082   1_556  S
N593        N594   1.318       .  A
N593        C597   1.336       .  A
N593       Cu601   2.046       .  S
N594       Cu600   2.080   1_554  S
C595        H598   1.082       .  S
C596        C597   1.380   1_556  A
C596        C641   1.478       .  S
C597        H599   1.082       .  S
Cu600       N603   2.084       .  S
Cu601       N611   2.046   1_565  S
Cu602       N604   2.093   1_554  S
Cu602       N610   2.089       .  S
N603        N604   1.328   1_565  A
N603        C607   1.345       .  A
N604        C605   1.346       .  A
C605        C606   1.382       .  A
C605        H608   1.082       .  S
C606        C607   1.380   1_545  A
C607        H609   1.082       .  S
N610        N611   1.318       .  A
N610        C614   1.353       .  A
N611        C612   1.335       .  A
C612        C613   1.383       .  A
C612        H615   1.081       .  S
C613        C614   1.395       .  A
C613        C618   1.488       .  S
C614        H616   1.081       .  S
C617        C622   1.389       .  A
C617        H624   1.082       .  S
C618        C619   1.411   1_554  A
C619        C620   1.408       .  A
C619        F626   1.356       .  S
C620        C621   1.406   1_556  A
C620        H625   1.083       .  S
C622        F623   1.358       .  S
C627        C628   1.405   1_556  A
C627        C632   1.406       .  A
C627        H634   1.083       .  S
C629        C630   1.391       .  A
C629        F636   1.358       .  S
C630        H635   1.083       .  S
C631        C632   1.408   1_554  A
C632        F633   1.357       .  S
C637        C638   1.402       .  A
C637        C642   1.389       .  A
C637        H644   1.083       .  S
C639        C640   1.407       .  A
C639        F646   1.357       .  S
C640        H645   1.083       .  S
C641        C642   1.405       .  A
C642        F643   1.358       .  S
C647        C652   1.390       .  A
C647        H654   1.083       .  S
C648        C649   1.409   1_554  A
C649        C650   1.407       .  A
C649        F656   1.357       .  S
C650        C651   1.406   1_556  A
C650        H655   1.083       .  S
C652        F653   1.358       .  S
C657        C658   1.407   1_545  A
C657        C662   1.398       .  A
C657        H664   1.083       .  S
C658        C659   1.410       .  A
C659        C660   1.398       .  A
C659        F666   1.357       .  S
C660        C661   1.400   1_565  A
C660        H665   1.084       .  S
C661        C662   1.402       .  A
C662        F663   1.357       .  S
C667        C668   1.401       .  A
C667        C672   1.398       .  A
C667        H674   1.084       .  S
C668        C669   1.403   1_565  A
C669        C670   1.398       .  A
C669        F676   1.358       .  S
C670        C671   1.406   1_545  A
C670        H675   1.083       .  S
C671        C672   1.409       .  A
C672        F673   1.357       .  S
C677        C678   1.405       .  A
C677        C682   1.398       .  A
C677        H684   1.083       .  S
C678        C679   1.408       .  A
C679        C680   1.398       .  A
C679        F686   1.357       .  S
C680        C681   1.401       .  A
C680        H685   1.084       .  S
C681        C682   1.403       .  A
C682        F683   1.358       .  S
C687        C688   1.401       .  A
C687        C692   1.399       .  A
C687        H694   1.083       .  S
C688        C689   1.403       .  A
C689        C690   1.399       .  A
C689        F696   1.358       .  S
C690        C691   1.406       .  A
C690        H695   1.083       .  S
C691        C692   1.408       .  A
C692        F693   1.357       .  S
C697        C698   1.407       .  A
C697        C702   1.388       .  A
C697        H704   1.079       .  S
C698        C699   1.414       .  A
C699        C700   1.409       .  A
C699        F706   1.355       .  S
C700        C701   1.405       .  A
C700        H705   1.083       .  S
C701        C702   1.404       .  A
C702        F703   1.358       .  S
C707        C708   1.406       .  A
C707        C712   1.406       .  A
C707        H714   1.083       .  S
C708        C709   1.406       .  A
C709        C710   1.389       .  A
C709        F716   1.358       .  S
C710        C711   1.402       .  A
C710        H715   1.083       .  S
C711        C712   1.408       .  A
C712        F713   1.357       .  S
C717        C718   1.406       .  A
C717        C722   1.407       .  A
C717        H724   1.083       .  S
C718        C719   1.405       .  A
C719        C720   1.390       .  A
C719        F726   1.358       .  S
C720        C721   1.404       .  A
C720        H725   1.083       .  S
C721        C722   1.409       .  A
C722        F723   1.357       .  S
C727        C728   1.406       .  A
C727        C732   1.409       .  A
C727        H734   1.083       .  S
C728        C729   1.404       .  A
C729        C730   1.388       .  A
C729        F736   1.357       .  S
C730        C731   1.408       .  A
C730        H735   1.078       .  S
C731        C732   1.414       .  A
C732        F733   1.355       .  S
