geometry optimzed in LAMMPS
_audit_creation_date              2020-12-01 
_audit_creation_method            'lammps2cif' 
_symmetry_space_group_name_H-M    'P1' 
_symmetry_Int_Tables_number       1 
_symmetry_cell_setting            triclinic 
loop_ 
_symmetry_equiv_pos_as_xyz 
  x,y,z 
_cell_length_a                    28.06332998 
_cell_length_b                    28.067436929811308 
_cell_length_c                    28.59013260523396 
_cell_angle_alpha                 89.99542014073216 
_cell_angle_beta                  90.00094558640143 
_cell_angle_gamma                 89.99428116713834 
loop_ 
_atom_site_label 
_atom_site_type_symbol 
_atom_site_fract_x 
_atom_site_fract_y 
_atom_site_fract_z 
_atom_site_charge 
C1          C  0.39042739  0.39813242  0.39774059     0.44200
N2          N  0.43915106  0.41581000  0.45284207     0.03100
C3          C  0.44180735  0.62118780  0.58837282    -0.04700
H4          H  0.46198409  0.65353989  0.41342769     0.08600
C5          C  0.61957464  0.55609227  0.41901147    -0.05100
Co6        Co  0.41021667  0.50449791  0.50385365     0.74200
N7          N  0.44901180  0.58929803  0.45310466    -0.24300
Co8        Co  0.50272706  0.58682709  0.50366418     0.74100
C9          C  0.60490511  0.60091887  0.39769263     0.44300
N10         N  0.58082888  0.44130378  0.45232627     0.02800
N11         N  0.55578576  0.58308361  0.45238004     0.02900
N12         N  0.38175362  0.56734602  0.58714651    -0.45100
H13         H  0.34441462  0.46442901  0.41210230     0.08600
N14         N  0.41381233  0.55801302  0.45289131     0.03100
N15         N  0.55607436  0.58305225  0.55458401     0.02900
C16         C  0.60477418  0.60081524  0.60962854     0.44500
N17         N  0.54563590  0.41003904  0.45269877    -0.23700
C18         C  0.37553308  0.44266731  0.58818584    -0.04600
N19         N  0.42957945  0.38302185  0.42077294    -0.44800
N20         N  0.56553767  0.61579977  0.58669906    -0.45100
C21         C  0.39037686  0.39793992  0.60961690     0.44300
N22         N  0.41438288  0.55759726  0.55500093     0.03100
N23         N  0.54637183  0.40998670  0.55467027    -0.23700
N24         N  0.40787730  0.45102418  0.45289307    -0.24200
N25         N  0.58152947  0.44131502  0.55460834     0.02800
H26         H  0.53329671  0.34653258  0.59556067     0.08700
H27         H  0.65103153  0.53471154  0.59509587     0.08700
N28         N  0.44962471  0.58881967  0.55471709    -0.24300
N29         N  0.58707221  0.54789680  0.45251284    -0.23900
N30         N  0.43951083  0.41589857  0.55502123     0.03100
C31         C  0.39563367  0.60775105  0.39884812     0.44500
C32         C  0.55330335  0.37780793  0.41884746    -0.05200
N33         N  0.58747325  0.54797098  0.55439007    -0.23900
H34         H  0.65084585  0.53465771  0.41221005     0.08700
N35         N  0.38069512  0.56817845  0.42130978    -0.45100
H36         H  0.53165388  0.34670115  0.41199867     0.08700
C37         C  0.59957224  0.39265356  0.60966561     0.44400
C38         C  0.37555182  0.44288589  0.41916905    -0.04700
Co39       Co  0.49258944  0.41211991  0.50385340     0.73800
N40         N  0.61326594  0.43172089  0.41993728    -0.44800
C41         C  0.39719113  0.60647619  0.60997034     0.44600
N42         N  0.42977153  0.38298259  0.58690388    -0.44800
Co43       Co  0.58504262  0.49449618  0.50344867     0.73900
C44         C  0.61982164  0.55616765  0.58808432    -0.05200
C45         C  0.44057253  0.62221695  0.42004946    -0.04700
N46         N  0.40809187  0.45097187  0.55475006    -0.24200
N47         N  0.56561008  0.61601328  0.42052375    -0.45000
H48         H  0.46338371  0.65236199  0.59514689     0.08600
C49         C  0.55473391  0.37771279  0.58840167    -0.05100
Cl50       Cl  0.49763013  0.49948313  0.50369264    -0.48100
C51         C  0.59780464  0.39264231  0.39702433     0.44400
H52         H  0.34419462  0.46401669  0.59494971     0.08600
N53         N  0.61448750  0.43182138  0.58654964    -0.44800
C54         C  0.68403532  0.68594772  0.69795440     0.88300
C55         C  0.71729763  0.65812573  0.73085376    -0.52000
C56         C  0.74452186  0.68689311  0.75852760     0.11200
C57         C  0.73615174  0.74030016  0.75100320     0.22200
C58         C  0.65477473  0.71867859  0.73022271    -0.52700
C59         C  0.68240711  0.74707927  0.75795129     0.11300
C60         C  0.71705473  0.71966249  0.67044973    -0.52200
C61         C  0.74431928  0.74804281  0.69854118     0.11900
H62         H  0.71932847  0.61948810  0.73194585     0.16400
H63         H  0.75846845  0.76348184  0.77370717     0.02100
H64         H  0.61608016  0.71928220  0.73108912     0.16700
H65         H  0.71891510  0.72072042  0.63251197     0.16500
C66         C  0.68299352  0.31113151  0.69785251     0.88300
C67         C  0.65378743  0.27867629  0.73041455    -0.52000
C68         C  0.68139199  0.25019828  0.75805585     0.11200
C69         C  0.73511521  0.25660816  0.75079751     0.22200
C70         C  0.71666110  0.33887171  0.73050754    -0.52700
C71         C  0.74386405  0.30996985  0.75817965     0.11300
C72         C  0.71564495  0.27712426  0.67028625    -0.52200
C73         C  0.74288293  0.24865624  0.69831706     0.11900
H74         H  0.61509389  0.27821376  0.73143600     0.16400
H75         H  0.75738127  0.23330376  0.77343834     0.02100
H76         H  0.71876038  0.37749897  0.73163739     0.16700
H77         H  0.71716607  0.27581514  0.63234138     0.16500
C78         C  0.31417257  0.68899138  0.69686281     0.88300
C79         C  0.34321957  0.72143795  0.72952002    -0.52000
C80         C  0.31543956  0.74924658  0.75760232     0.11200
C81         C  0.26176274  0.74220004  0.75062150     0.22200
C82         C  0.28109237  0.66045077  0.72933116    -0.52700
C83         C  0.25369634  0.68866912  0.75737818     0.11300
C84         C  0.28095087  0.72284970  0.66976039    -0.52200
C85         C  0.25353034  0.75060798  0.69831116     0.11900
H86         H  0.38191286  0.72239553  0.73027771     0.16400
H87         H  0.23932297  0.76493699  0.77364515     0.02100
H88         H  0.27934565  0.62178842  0.72991811     0.16700
H89         H  0.27909864  0.72447593  0.63184083     0.16500
C90         C  0.30979235  0.31348835  0.69737411     0.88300
C91         C  0.27700112  0.34157771  0.73059024    -0.52000
C92         C  0.24971817  0.31299848  0.75847115     0.11200
C93         C  0.25768866  0.25953945  0.75081375     0.22200
C94         C  0.33903961  0.28045479  0.72931618    -0.52700
C95         C  0.31143125  0.25228207  0.75725014     0.11300
C96         C  0.27628523  0.28011152  0.67010814    -0.52200
C97         C  0.24908093  0.25193185  0.69842193     0.11900
H98         H  0.27522082  0.38022556  0.73162616     0.16400
H99         H  0.23540033  0.23645928  0.77364553     0.02100
H100        H  0.37773517  0.27943604  0.72977229     0.16700
H101        H  0.27422348  0.27895409  0.63218134     0.16500
N102        N  0.99831281  0.92599870  0.65346800    -0.34800
N103        N  0.07084971  0.00047787  0.65570059    -0.55400
N104        N  0.99661330  0.07293988  0.65077819    -0.34800
N105        N  0.92403772  0.99845561  0.65377253    -0.55400
C106        C  0.03728064  0.90047614  0.66576440     0.28800
C107        C  0.95953722  0.89936534  0.66400816     0.28800
C108        C  0.03504542  0.09985554  0.66178361     0.28800
C109        C  0.95730248  0.09874055  0.66139100     0.28800
C110        C  0.09948898  0.96207632  0.65099999     0.37400
C111        C  0.09856466  0.03924868  0.64901501     0.37400
C112        C  0.89673388  0.95945963  0.64666040     0.37400
C113        C  0.89581381  0.03667353  0.64609776     0.37400
C114        C  0.02310194  0.85687914  0.68392733    -0.20100
C115        C  0.97406359  0.85617573  0.68280958    -0.20100
C116        C  0.01997670  0.14352934  0.67903525    -0.20100
C117        C  0.97094179  0.14280401  0.67884859    -0.20100
C118        C  0.14579009  0.97652398  0.64168188    -0.21200
C119        C  0.14519751  0.02544160  0.64039004    -0.21200
C120        C  0.85079568  0.97296091  0.63467445    -0.21200
C121        C  0.85020173  0.02191743  0.63436789    -0.21200
C122        C  0.08520613  0.91453298  0.65901856    -0.16500
C123        C  0.91160387  0.91219223  0.65520803    -0.16500
C124        C  0.90958904  0.08440316  0.65381260    -0.16500
C125        C  0.08323614  0.08674808  0.65508769    -0.16500
H126        H  0.04574126  0.82841687  0.69653520     0.16400
H127        H  0.95167379  0.82707859  0.69439387     0.16400
H128        H  0.04201411  0.17290181  0.69060188     0.16400
H129        H  0.94796267  0.17155268  0.69016394     0.16400
H130        H  0.17692121  0.95421047  0.63723188     0.14700
H131        H  0.17578842  0.04823156  0.63481584     0.14700
H132        H  0.82061758  0.94996827  0.62788326     0.14700
H133        H  0.81949295  0.04409830  0.62724993     0.14700
H134        H  0.99825320  0.95865744  0.63641920     0.27900
H135        H  0.99718698  0.03980179  0.63465176     0.27900
C136        C  0.68583078  0.68531199  0.31006249     0.88300
C137        C  0.65625168  0.71812784  0.27819125    -0.52000
C138        C  0.68353635  0.74632136  0.24997426     0.11200
C139        C  0.73735439  0.73924412  0.25604240     0.22200
C140        C  0.71847728  0.65721114  0.27671817    -0.52700
C141        C  0.74540693  0.68575837  0.24847247     0.11300
C142        C  0.71940893  0.71893383  0.33697666    -0.52200
C143        C  0.74631773  0.74711350  0.30836471     0.11900
H144        H  0.61755195  0.71909123  0.27808855     0.16400
H145        H  0.75936923  0.76232430  0.23295912     0.02100
H146        H  0.72021641  0.61856167  0.27566650     0.16700
H147        H  0.72166484  0.72030866  0.37488587     0.16500
C148        C  0.31214684  0.68774459  0.30957966     0.88300
C149        C  0.27982391  0.65828524  0.27709011    -0.52000
C150        C  0.25176725  0.68577023  0.24890147     0.11200
C151        C  0.25847078  0.73949878  0.25554149     0.22200
C152        C  0.34039525  0.72086498  0.27682033    -0.52700
C153        C  0.31194021  0.74791067  0.24860212     0.11300
C154        C  0.27803806  0.72086334  0.33645238    -0.52200
C155        C  0.24999946  0.74785194  0.30780615     0.11900
H156        H  0.27902785  0.61959295  0.27661662     0.16400
H157        H  0.23549838  0.76163858  0.23245426     0.02100
H158        H  0.37904448  0.72291807  0.27620593     0.16700
H159        H  0.27625520  0.72276869  0.37436267     0.16500
N160        N  0.07274425  0.64629238  0.00253933    -0.34800
N161        N  0.99984447  0.64252178  0.92992742    -0.55400
N162        N  0.92611057  0.64408379  0.00228979    -0.34800
N163        N  0.99896298  0.64122974  0.07486884    -0.55400
C164        C  0.10024664  0.63841009  0.96445061     0.28800
C165        C  0.09982917  0.63793948  0.04079126     0.28800
C166        C  0.89953865  0.63469338  0.96392682     0.28800
C167        C  0.89907470  0.63413097  0.04024862     0.28800
C168        C  0.03842987  0.65038099  0.90270285     0.37400
C169        C  0.96117588  0.64946418  0.90259165     0.37400
C170        C  0.03741545  0.64955744  0.10214255     0.37400
C171        C  0.96013626  0.64835504  0.10200815     0.37400
C172        C  0.14569313  0.62536689  0.97869611    -0.20100
C173        C  0.14543009  0.62506292  0.02684384    -0.20100
C174        C  0.85482418  0.61886610  0.97766934    -0.20100
C175        C  0.85453876  0.61850538  0.02582422    -0.20100
C176        C  0.02420860  0.66161861  0.85756987    -0.21200
C177        C  0.97526942  0.66108903  0.85751230    -0.21200
C178        C  0.02294187  0.66129113  0.14707743    -0.21200
C179        C  0.97399905  0.66054225  0.14698486    -0.21200
C180        C  0.08624139  0.64519917  0.91737506    -0.16500
C181        C  0.08534413  0.64429936  0.08778871    -0.16500
C182        C  0.91249332  0.64168447  0.08735349    -0.16500
C183        C  0.91347781  0.64283990  0.91705971    -0.16500
H184        H  0.17603102  0.61727042  0.95670526     0.16400
H185        H  0.17554376  0.61671094  0.04903932     0.16400
H186        H  0.82528399  0.60903705  0.95531989     0.16400
H187        H  0.82475092  0.60837001  0.04771977     0.16400
H188        H  0.04671325  0.66914027  0.82772287     0.14700
H189        H  0.95268543  0.66804209  0.82759005     0.14700
H190        H  0.04530002  0.66932535  0.17689849     0.14700
H191        H  0.95126067  0.66785861  0.17670664     0.14700
H192        H  0.03822231  0.65940807  0.00252012     0.27900
H193        H  0.95970414  0.65949181  0.00251596     0.27900
C194        C  0.30964594  0.31414776  0.30961626     0.88300
C195        C  0.33790294  0.28109886  0.27679068    -0.52000
C196        C  0.30945149  0.25303027  0.24952448     0.11200
C197        C  0.25593204  0.26049194  0.25739357     0.22200
C198        C  0.27610700  0.34242155  0.27733770    -0.52700
C199        C  0.24804681  0.31401125  0.25008486     0.11300
C200        C  0.27677763  0.28077852  0.33763071    -0.52200
C201        C  0.24870873  0.25278402  0.30997782     0.11900
H202        H  0.37656503  0.27988792  0.27538907     0.16400
H203        H  0.23294688  0.23757044  0.23507958     0.02100
H204        H  0.27463985  0.38108267  0.27621704     0.16700
H205        H  0.27576669  0.27948601  0.37559434     0.16500
N206        N  0.92441958  0.00010751  0.35440417    -0.34800
N207        N  0.99791341  0.07351224  0.35316961    -0.55400
N208        N  0.07136451  0.00003521  0.35490054    -0.34800
N209        N  0.99781798  0.92668376  0.35079607    -0.55400
C210        C  0.89804971  0.03904709  0.34383581     0.28800
C211        C  0.89798938  0.96128566  0.34361332     0.28800
C212        C  0.09764465  0.03910877  0.34471239     0.28800
C213        C  0.09751395  0.96140926  0.34285400     0.28800
C214        C  0.95922610  0.10147800  0.35939685     0.37400
C215        C  0.03646397  0.10134854  0.36057885     0.37400
C216        C  0.95927600  0.89876279  0.35790883     0.37400
C217        C  0.03646897  0.89877470  0.35735462     0.37400
C218        C  0.85406890  0.02474956  0.32665723    -0.20100
C219        C  0.85402212  0.97571797  0.32654894    -0.20100
C220        C  0.14127236  0.02513020  0.32644392    -0.20100
C221        C  0.14117079  0.97610112  0.32523088    -0.20100
C222        C  0.97326042  0.14748293  0.37047249    -0.21200
C223        C  0.02222067  0.14738676  0.37129670    -0.21200
C224        C  0.97349320  0.85273447  0.36869066    -0.21200
C225        C  0.02245042  0.85273698  0.36831958    -0.21200
C226        C  0.91175709  0.08699629  0.35118933    -0.16500
C227        C  0.91169476  0.91331639  0.35068236    -0.16500
C228        C  0.08390828  0.91337566  0.34950578    -0.16500
C229        C  0.08406648  0.08685031  0.35327104    -0.16500
H230        H  0.82490388  0.04728627  0.31550701     0.16400
H231        H  0.82484075  0.95326853  0.31528367     0.16400
H232        H  0.17024167  0.04787786  0.31521986     0.16400
H233        H  0.17006671  0.95381851  0.31296487     0.16400
H234        H  0.95062278  0.17810844  0.37644485     0.14700
H235        H  0.04474277  0.17795570  0.37791735     0.14700
H236        H  0.95095731  0.82216112  0.37524541     0.14700
H237        H  0.04510275  0.82217314  0.37454883     0.14700
H238        H  0.95759776  0.99997554  0.37041008     0.27900
H239        H  0.03850187  0.99970470  0.37155418     0.27900
N240        N  0.36543153  0.92776751  0.00361186    -0.34800
N241        N  0.36286179  0.00127276  0.93165660    -0.55400
N242        N  0.36548885  0.07486254  0.00381964    -0.34800
N243        N  0.36253822  0.00120772  0.07572257    -0.55400
C244        C  0.35542916  0.90117986  0.96536592     0.28800
C245        C  0.35456104  0.90120425  0.04165894     0.28800
C246        C  0.35343702  0.10086280  0.96573204     0.28800
C247        C  0.35365764  0.10081234  0.04200962     0.28800
C248        C  0.36951161  0.96276563  0.90403419     0.37400
C249        C  0.36885505  0.03998273  0.90417764     0.37400
C250        C  0.36894629  0.96253286  0.10316188     0.37400
C251        C  0.36943505  0.03975503  0.10321298     0.37400
C252        C  0.33867931  0.85687654  0.97929164    -0.20100
C253        C  0.33807573  0.85691144  0.02739171    -0.20100
C254        C  0.33430785  0.14410510  0.97989153    -0.20100
C255        C  0.33444465  0.14407327  0.02800717    -0.20100
C256        C  0.37938861  0.97708147  0.85863429    -0.21200
C257        C  0.37897664  0.02602674  0.85872554    -0.21200
C258        C  0.37970544  0.97656996  0.14844757    -0.21200
C259        C  0.38008404  0.02553587  0.14846535    -0.21200
C260        C  0.36267565  0.91509273  0.91835291    -0.16500
C261        C  0.36101279  0.91504830  0.08881420    -0.16500
C262        C  0.36131953  0.08724008  0.08904582    -0.16500
C263        C  0.36090188  0.08740662  0.91863975    -0.16500
H264        H  0.32799170  0.82750126  0.95712256     0.16400
H265        H  0.32690422  0.82753605  0.04933287     0.16400
H266        H  0.32152196  0.17273953  0.95785147     0.16400
H267        H  0.32178349  0.17268209  0.05014286     0.16400
H268        H  0.38532565  0.95461754  0.82842029     0.14700
H269        H  0.38449323  0.04871105  0.82859030     0.14700
H270        H  0.38570883  0.95391515  0.17851450     0.14700
H271        H  0.38630034  0.04807570  0.17856993     0.14700
H272        H  0.38104450  0.96126418  0.00374376     0.27900
H273        H  0.38302221  0.04227423  0.00374834     0.27900
N274        N  0.92246186  0.36352942  0.00480463    -0.34800
N275        N  0.99615933  0.36226345  0.07624790    -0.55400
N276        N  0.06944856  0.36397615  0.00357464    -0.34800
N277        N  0.99572842  0.35984630  0.93220147    -0.55400
C278        C  0.89644523  0.35276832  0.04324977     0.28800
C279        C  0.89623307  0.35121233  0.96697782     0.28800
C280        C  0.09588170  0.35322713  0.04172944     0.28800
C281        C  0.09558219  0.35238270  0.96541997     0.28800
C282        C  0.95776915  0.36934636  0.10394016     0.37400
C283        C  0.03499456  0.36925446  0.10330239     0.37400
C284        C  0.95683905  0.36684123  0.90521784     0.37400
C285        C  0.03406115  0.36724505  0.90451998     0.37400
C286        C  0.85290502  0.33389644  0.02966859    -0.20100
C287        C  0.85278654  0.33287643  0.98154978    -0.20100
C288        C  0.13962127  0.33516754  0.02763439    -0.20100
C289        C  0.13942618  0.33462743  0.97950340    -0.20100
C290        C  0.97225586  0.38058189  0.14896398    -0.21200
C291        C  0.02122194  0.38051358  0.14856756    -0.21200
C292        C  0.97049936  0.37851176  0.86003191    -0.21200
C293        C  0.01948751  0.37874969  0.85958805    -0.21200
C294        C  0.91015600  0.36137917  0.09007885    -0.16500
C295        C  0.90955395  0.35825179  0.91978192    -0.16500
C296        C  0.08169736  0.35939205  0.91836584    -0.16500
C297        C  0.08239292  0.36114758  0.08877173    -0.16500
H298        H  0.82412747  0.32214925  0.05207856     0.16400
H299        H  0.82386357  0.32026423  0.95978576     0.16400
H300        H  0.16875443  0.32365340  0.04971919     0.16400
H301        H  0.16836678  0.32263569  0.95742045     0.16400
H302        H  0.94990780  0.38709338  0.17914997     0.14700
H303        H  0.04405542  0.38698802  0.17840957     0.14700
H304        H  0.94757703  0.38514115  0.83028724     0.14700
H305        H  0.04180295  0.38562233  0.82945674     0.14700
H306        H  0.95519678  0.38073006  0.00430919     0.27900
H307        H  0.03643926  0.38061774  0.00359164     0.27900
C308        C  0.68220270  0.31156372  0.30981920     0.88300
C309        C  0.71485648  0.34094906  0.27762263    -0.52000
C310        C  0.74298321  0.31348861  0.24950741     0.11200
C311        C  0.73594837  0.25972178  0.25596156     0.22200
C312        C  0.65398180  0.27872570  0.27689211    -0.52700
C313        C  0.68241983  0.25162740  0.24879356     0.11300
C314        C  0.71598737  0.27818036  0.33684643    -0.52200
C315        C  0.74410374  0.25111101  0.30828287     0.11900
H316        H  0.71583053  0.37964044  0.27730206     0.16400
H317        H  0.75890420  0.23754394  0.23290670     0.02100
H318        H  0.61532003  0.27688204  0.27607523     0.16700
H319        H  0.71756778  0.27623408  0.37476205     0.16500
N320        N  0.63107861  0.07182427  0.00398222    -0.34800
N321        N  0.63314655  0.99864263  0.07655784    -0.55400
N322        N  0.63029403  0.92498968  0.00488565    -0.34800
N323        N  0.63372469  0.99815604  0.93231360    -0.55400
C324        C  0.64288268  0.09797264  0.04200761     0.28800
C325        C  0.64281409  0.09773355  0.96575896     0.28800
C326        C  0.64020556  0.89845041  0.04322265     0.28800
C327        C  0.64059948  0.89815555  0.96687006     0.28800
C328        C  0.62636713  0.03749302  0.10363453     0.37400
C329        C  0.62587877  0.96028645  0.10421487     0.37400
C330        C  0.62686179  0.03664675  0.90471908     0.37400
C331        C  0.62674844  0.95943037  0.90510068     0.37400
C332        C  0.66195436  0.14121775  0.02777452    -0.20100
C333        C  0.66188693  0.14107375  0.97965356    -0.20100
C334        C  0.65635479  0.85391378  0.02936276    -0.20100
C335        C  0.65660309  0.85372870  0.98123917    -0.20100
C336        C  0.61502744  0.02379726  0.14888861    -0.21200
C337        C  0.61477068  0.97482958  0.14926774    -0.21200
C338        C  0.61583713  0.02234927  0.85958697    -0.21200
C339        C  0.61582637  0.97338545  0.85981168    -0.21200
C340        C  0.63476036  0.08478653  0.08904814    -0.16500
C341        C  0.63469404  0.08418602  0.91883148    -0.16500
C342        C  0.63398345  0.91189505  0.91968008    -0.16500
C343        C  0.63319755  0.91259077  0.09024186    -0.16500
H344        H  0.67443930  0.17001676  0.04976310     0.16400
H345        H  0.67433128  0.16971625  0.95744189     0.16400
H346        H  0.66675405  0.82447553  0.05158501     0.16400
H347        H  0.66721948  0.82411709  0.95934561     0.16400
H348        H  0.60863715  0.04666964  0.17871685     0.14700
H349        H  0.60804811  0.95250351  0.17942399     0.14700
H350        H  0.60943531  0.04482004  0.82946569     0.14700
H351        H  0.60930136  0.95066909  0.82989920     0.14700
H352        H  0.61347319  0.03931539  0.00412306     0.27900
H353        H  0.61506635  0.95862083  0.00463562     0.27900
C354        C  0.63840030  0.12147598  0.12456936    -0.16700
C355        C  0.64364792  0.15210922  0.15368957     0.07300
C356        C  0.65302404  0.18771384  0.18731874     0.09200
C357        C  0.66433383  0.21745674  0.21562865    -0.17600
C358        C  0.77727399  0.33262264  0.21690805    -0.16700
C359        C  0.80724553  0.34426940  0.18888005     0.07300
C360        C  0.84310550  0.35356836  0.15535087     0.09200
C361        C  0.87375553  0.35844521  0.12609380    -0.17600
C362        C  0.87532042  0.12360735  0.34751053    -0.16700
C363        C  0.84482676  0.15360457  0.34277760     0.07300
C364        C  0.80907565  0.18821823  0.33479143     0.09200
C365        C  0.77895230  0.21727703  0.32500163    -0.17600
C366        C  0.11886944  0.35745830  0.12453804    -0.16700
C367        C  0.14899177  0.35222582  0.15419598     0.07300
C368        C  0.18402762  0.34308423  0.18850002     0.09200
C369        C  0.21360372  0.33204032  0.21711021    -0.17600
C370        C  0.35646049  0.12346647  0.12500636    -0.16700
C371        C  0.34988830  0.15372703  0.15432384     0.07300
C372        C  0.33925067  0.18904373  0.18802465     0.09200
C373        C  0.32750465  0.21870323  0.21634047    -0.17600
C374        C  0.21482136  0.21871685  0.32789624    -0.16700
C375        C  0.18553045  0.18918133  0.33851672     0.07300
C376        C  0.15065057  0.15384762  0.34673256     0.09200
C377        C  0.12056724  0.12341483  0.35089699    -0.17600
C378        C  0.21785048  0.66692997  0.21588252    -0.16700
C379        C  0.18811988  0.65659455  0.18719265     0.07300
C380        C  0.15261812  0.64934448  0.15293775     0.09200
C381        C  0.12208787  0.64597862  0.12343063    -0.17600
C382        C  0.32982508  0.78232909  0.21547239    -0.16700
C383        C  0.34090651  0.81229325  0.18723304     0.07300
C384        C  0.35050849  0.84808842  0.15375474     0.09200
C385        C  0.35642606  0.87868590  0.12465745    -0.17600
C386        C  0.12031824  0.87684873  0.34578512    -0.16700
C387        C  0.15036150  0.84641353  0.34139202     0.07300
C388        C  0.18543292  0.81111062  0.33391111     0.09200
C389        C  0.21520386  0.78167235  0.32439948    -0.17600
C390        C  0.77917267  0.66791577  0.21456486    -0.16700
C391        C  0.80862222  0.65706156  0.18565304     0.07300
C392        C  0.84414962  0.64829209  0.15156182     0.09200
C393        C  0.87504358  0.64376640  0.12244797    -0.17500
C394        C  0.66417697  0.78050901  0.21740025    -0.16700
C395        C  0.65223235  0.81030086  0.18931120     0.07300
C396        C  0.64235672  0.84592117  0.15570225     0.09200
C397        C  0.63681345  0.87637219  0.12636583    -0.17600
C398        C  0.78048893  0.78156672  0.32510774    -0.16700
C399        C  0.80995176  0.81121258  0.33502989     0.07300
C400        C  0.84504388  0.84643909  0.34300171     0.09200
C401        C  0.87523336  0.87674404  0.34748350    -0.17600
C402        C  0.21472175  0.21790524  0.68131701    -0.16700
C403        C  0.18500758  0.18865176  0.67108168     0.07300
C404        C  0.14961496  0.15383771  0.66282586     0.09200
C405        C  0.11932487  0.12366897  0.65825400    -0.17600
C406        C  0.33039104  0.21829601  0.79020468    -0.16700
C407        C  0.34194041  0.18895929  0.81887765     0.07300
C408        C  0.35138924  0.15401618  0.85322786     0.09200
C409        C  0.35680039  0.12387927  0.88286538    -0.17600
C410        C  0.11797689  0.35541391  0.88228637    -0.16700
C411        C  0.14868176  0.35018259  0.85310960     0.07300
C412        C  0.18482164  0.34137262  0.81968426     0.09200
C413        C  0.21510877  0.33072789  0.79156365    -0.17600
C414        C  0.21934777  0.67053621  0.79032626    -0.16700
C415        C  0.18952070  0.65988734  0.81880065     0.07300
C416        C  0.15396403  0.65167364  0.85278680     0.09200
C417        C  0.12330393  0.64748628  0.88206636    -0.17600
C418        C  0.12200305  0.87834976  0.66262477    -0.16700
C419        C  0.15270694  0.84847105  0.66637796     0.07300
C420        C  0.18861404  0.81377348  0.67284649     0.09200
C421        C  0.21883627  0.78457282  0.68173429    -0.17600
C422        C  0.33418952  0.78292262  0.79093973    -0.16700
C423        C  0.34557687  0.81243034  0.81948498     0.07300
C424        C  0.35473256  0.84797742  0.85328398     0.09200
C425        C  0.35964503  0.87858558  0.88252223    -0.17600
C426        C  0.66246205  0.21649996  0.79131412    -0.16700
C427        C  0.65115484  0.18695553  0.81987686     0.07300
C428        C  0.64229959  0.15137584  0.85375416     0.09200
C429        C  0.63766662  0.12074172  0.88303043    -0.17600
C430        C  0.77673166  0.21421657  0.68085625    -0.16700
C431        C  0.80625336  0.18481291  0.67035420     0.07300
C432        C  0.84172159  0.15006188  0.66182997     0.09200
C433        C  0.87242411  0.12029543  0.65706732    -0.17600
C434        C  0.77812517  0.32733372  0.79173438    -0.16700
C435        C  0.80762951  0.33807879  0.82055897     0.07300
C436        C  0.84279030  0.34749595  0.85472084     0.09200
C437        C  0.87307206  0.35343215  0.88412137    -0.17600
C438        C  0.63756916  0.87534331  0.88392663    -0.16700
C439        C  0.64278807  0.84504958  0.85440526     0.07300
C440        C  0.65208623  0.80997350  0.82012841     0.09200
C441        C  0.66351055  0.78072513  0.79130647    -0.17600
C442        C  0.87634384  0.64517174  0.88185409    -0.16700
C443        C  0.84528811  0.64975440  0.85304121     0.07300
C444        C  0.80919134  0.65849073  0.81972711     0.09200
C445        C  0.77906817  0.66928116  0.79159049    -0.17600
C446        C  0.77883669  0.78191204  0.68118583    -0.16700
C447        C  0.80888533  0.81087966  0.67088534     0.07300
C448        C  0.84471619  0.84539406  0.66270902     0.09200
C449        C  0.87528127  0.87538149  0.65825781    -0.17600
C450        C  0.63160281  0.62976837  0.64198244    -0.11500
C451        C  0.65475718  0.65496257  0.66774497    -0.13000
C452        C  0.65324691  0.34178284  0.66764161    -0.11500
C453        C  0.62861647  0.36563939  0.64190267    -0.13000
C454        C  0.36837148  0.63432685  0.64138875    -0.11500
C455        C  0.34392582  0.65876825  0.66657265    -0.13000
C456        C  0.63257800  0.62998043  0.36613178    -0.11500
C457        C  0.65651142  0.65476450  0.34067128    -0.13000
C458        C  0.33927597  0.34405796  0.66698503    -0.11500
C459        C  0.36300264  0.36890119  0.64141649    -0.13000
C460        C  0.36699011  0.63498446  0.36654150    -0.11500
C461        C  0.34251729  0.65850603  0.34042421    -0.13000
C462        C  0.62668611  0.36494149  0.36542860    -0.11500
C463        C  0.65161691  0.34098790  0.34018572    -0.13000
C464        C  0.33984198  0.34461368  0.33949812    -0.11500
C465        C  0.36347655  0.36936101  0.36528206    -0.13000
loop_ 
_geom_bond_atom_site_label_1 
_geom_bond_atom_site_label_2 
_geom_bond_distance 
_geom_bond_site_symmetry_2 
_ccdc_geom_bond_type 
C1           N19   1.349       .  A
C1           C38   1.459       .  S
C1          C465   1.444       .  S
N2           N19   1.327       .  A
N2           N24   1.322       .  A
N2          Co39   2.094       .  S
C3           N28   1.341       .  A
C3           C41   1.456       .  S
C3           H48   1.082       .  S
H4           C45   1.082       .  S
C5           N29   1.343       .  A
C5            C9   1.457       .  S
C5           H34   1.082       .  S
Co6          N24   2.093       .  S
Co6          N14   2.095       .  S
Co6          N46   2.092       .  S
Co6          N22   2.091       .  S
Co6         Cl50   2.457       .  S
N7           C45   1.343       .  A
N7           N14   1.322       .  A
N7           Co8   2.090       .  S
Co8          N11   2.092       .  S
Co8          N28   2.087       .  S
Co8          N15   2.091       .  S
Co8         Cl50   2.456       .  S
C9           N47   1.350       .  A
C9          C456   1.443       .  S
N10          N17   1.321       .  A
N10          N40   1.326       .  A
N10         Co43   2.093       .  S
N11          N29   1.321       .  A
N11          N47   1.327       .  A
N12          C41   1.349       .  A
N12          N22   1.326       .  A
H13          C38   1.082       .  S
N14          N35   1.327       .  A
N15          N33   1.321       .  A
N15          N20   1.326       .  A
C16          N20   1.349       .  A
C16          C44   1.459       .  S
C16         C450   1.443       .  S
N17          C32   1.342       .  A
N17         Co39   2.088       .  S
C18          N46   1.343       .  A
C18          C21   1.458       .  S
C18          H52   1.082       .  S
C21          N42   1.349       .  A
C21         C459   1.443       .  S
N22          N28   1.321       .  A
N23          C49   1.344       .  A
N23          N25   1.322       .  A
N23         Co39   2.096       .  S
N24          C38   1.343       .  A
N25          N53   1.327       .  A
N25         Co43   2.092       .  S
H26          C49   1.082       .  S
H27          C44   1.082       .  S
N29         Co43   2.090       .  S
N30          N42   1.326       .  A
N30          N46   1.322       .  A
N30         Co39   2.090       .  S
C31          N35   1.350       .  A
C31          C45   1.457       .  S
C31         C460   1.443       .  S
C32          C51   1.457       .  S
C32          H36   1.082       .  S
N33          C44   1.344       .  A
N33         Co43   2.093       .  S
C37          N53   1.349       .  A
C37          C49   1.459       .  S
C37         C453   1.445       .  S
Co39        Cl50   2.456       .  S
N40          C51   1.349       .  A
C41         C454   1.439       .  S
Co43        Cl50   2.457       .  S
C51         C462   1.441       .  S
C54          C55   1.538       .  S
C54          C60   1.540       .  S
C54          C58   1.539       .  S
C54         C451   1.476       .  S
C55          H62   1.086       .  S
C55          C56   1.364       .  D
C56          C57   1.532       .  S
C56         C445   1.441       .  S
C57          C61   1.533       .  S
C57          C59   1.533       .  S
C57          H63   1.112       .  S
C58          H64   1.086       .  S
C58          C59   1.366       .  D
C59         C441   1.443       .  S
C60          H65   1.086       .  S
C60          C61   1.366       .  D
C61         C446   1.445       .  S
C66          C67   1.539       .  S
C66          C72   1.540       .  S
C66          C70   1.540       .  S
C66         C452   1.477       .  S
C67          H74   1.086       .  S
C67          C68   1.365       .  D
C68          C69   1.532       .  S
C68         C426   1.443       .  S
C69          C73   1.533       .  S
C69          C71   1.532       .  S
C69          H75   1.112       .  S
C70          H76   1.086       .  S
C70          C71   1.366       .  D
C71         C434   1.443       .  S
C72          H77   1.086       .  S
C72          C73   1.366       .  D
C73         C430   1.444       .  S
C78          C79   1.538       .  S
C78          C84   1.540       .  S
C78          C82   1.538       .  S
C78         C455   1.472       .  S
C79          H86   1.086       .  S
C79          C80   1.364       .  D
C80          C81   1.532       .  S
C80         C422   1.442       .  S
C81          C85   1.532       .  S
C81          C83   1.532       .  S
C81          H87   1.112       .  S
C82          H88   1.086       .  S
C82          C83   1.364       .  D
C83         C414   1.441       .  S
C84          H89   1.086       .  S
C84          C85   1.366       .  D
C85         C421   1.443       .  S
C90          C91   1.540       .  S
C90          C96   1.539       .  S
C90          C94   1.539       .  S
C90         C458   1.475       .  S
C91          H98   1.086       .  S
C91          C92   1.366       .  D
C92          C93   1.533       .  S
C92         C413   1.444       .  S
C93          C97   1.532       .  S
C93          C95   1.533       .  S
C93          H99   1.112       .  S
C94         H100   1.086       .  S
C94          C95   1.365       .  D
C95         C406   1.442       .  S
C96         H101   1.086       .  S
C96          C97   1.365       .  D
C97         C402   1.443       .  S
N102        C107   1.354       .  A
N102        C106   1.354   1_655  A
N102        H134   1.038       .  S
N103        C110   1.351   1_545  A
N103        C111   1.351       .  A
N104        C109   1.354       .  A
N104        C108   1.354   1_655  A
N104        H135   1.038       .  S
N105        C112   1.352       .  A
N105        C113   1.351   1_565  A
C106        C114   1.388       .  A
C106        C122   1.415       .  A
C107        C123   1.415       .  A
C107        C115   1.387       .  A
C108        C116   1.387       .  A
C108        C125   1.415       .  A
C109        C124   1.415       .  A
C109        C117   1.388       .  A
C110        C122   1.412       .  A
C110        C118   1.387       .  A
C111        C125   1.412       .  A
C111        C119   1.387       .  A
C112        C120   1.387       .  A
C112        C123   1.412       .  A
C113        C121   1.387       .  A
C113        C124   1.412       .  A
C114        H126   1.082       .  S
C114        C115   1.377   1_455  A
C115        H127   1.082       .  S
C116        H128   1.082       .  S
C116        C117   1.376   1_455  A
C117        H129   1.082       .  S
C118        H130   1.082       .  S
C118        C119   1.374   1_565  A
C119        H131   1.082       .  S
C120        H132   1.082       .  S
C120        C121   1.374   1_565  A
C121        H133   1.082       .  S
C122        C418   1.452       .  S
C123        C449   1.454       .  S
C124        C433   1.453       .  S
C125        C405   1.452       .  S
C136        C137   1.539       .  S
C136        C142   1.540       .  S
C136        C140   1.540       .  S
C136        C457   1.476       .  S
C137        H144   1.086       .  S
C137        C138   1.365       .  D
C138        C139   1.533       .  S
C138        C394   1.443       .  S
C139        C143   1.533       .  S
C139        C141   1.533       .  S
C139        H145   1.112       .  S
C140        H146   1.086       .  S
C140        C141   1.366       .  D
C141        C390   1.445       .  S
C142        H147   1.086       .  S
C142        C143   1.366       .  D
C143        C398   1.444       .  S
C148        C149   1.539       .  S
C148        C154   1.540       .  S
C148        C152   1.539       .  S
C148        C461   1.476       .  S
C149        H156   1.086       .  S
C149        C150   1.365       .  D
C150        C151   1.532       .  S
C150        C378   1.441       .  S
C151        C155   1.531       .  S
C151        C153   1.532       .  S
C151        H157   1.112       .  S
C152        H158   1.086       .  S
C152        C153   1.365       .  D
C153        C382   1.443       .  S
C154        H159   1.086       .  S
C154        C155   1.365       .  D
C155        C389   1.442       .  S
N160        C165   1.352       .  A
N160        C164   1.353   1_554  A
N160        H192   1.036       .  S
N161        C168   1.352   1_655  A
N161        C169   1.351       .  A
N162        C167   1.353       .  A
N162        C166   1.352   1_554  A
N162        H193   1.037       .  S
N163        C170   1.352   1_655  A
N163        C171   1.353       .  A
C164        C172   1.388       .  A
C164        C180   1.415       .  A
C165        C181   1.415       .  A
C165        C173   1.388       .  A
C166        C174   1.388       .  A
C166        C183   1.414       .  A
C167        C182   1.414       .  A
C167        C175   1.387       .  A
C168        C180   1.413       .  A
C168        C176   1.387       .  A
C169        C183   1.413       .  A
C169        C177   1.387       .  A
C170        C178   1.387       .  A
C170        C181   1.414       .  A
C171        C179   1.386       .  A
C171        C182   1.414       .  A
C172        H184   1.082       .  S
C172        C173   1.377   1_556  A
C173        H185   1.082       .  S
C174        H186   1.082       .  S
C174        C175   1.377   1_556  A
C175        H187   1.082       .  S
C176        H188   1.082       .  S
C176        C177   1.373   1_455  A
C177        H189   1.082       .  S
C178        H190   1.082       .  S
C178        C179   1.374   1_455  A
C179        H191   1.082       .  S
C180        C417   1.451       .  S
C181        C381   1.450       .  S
C182        C393   1.454       .  S
C183        C442   1.450       .  S
C194        C195   1.539       .  S
C194        C200   1.539       .  S
C194        C198   1.539       .  S
C194        C464   1.476       .  S
C195        H202   1.086       .  S
C195        C196   1.366       .  D
C196        C197   1.533       .  S
C196        C373   1.444       .  S
C197        C201   1.532       .  S
C197        C199   1.533       .  S
C197        H203   1.112       .  S
C198        H204   1.086       .  S
C198        C199   1.365       .  D
C199        C369   1.442       .  S
C200        H205   1.086       .  S
C200        C201   1.365       .  D
C201        C374   1.443       .  S
N206        C211   1.354   1_545  A
N206        C210   1.354       .  A
N206        H238   1.037   1_545  S
N207        C214   1.351       .  A
N207        C215   1.351   1_655  A
N208        C213   1.354   1_545  A
N208        C212   1.353       .  A
N208        H239   1.038   1_545  S
N209        C216   1.351       .  A
N209        C217   1.351   1_655  A
C210        C218   1.388       .  A
C210        C226   1.415       .  A
C211        C227   1.415       .  A
C211        C219   1.387       .  A
C212        C220   1.388       .  A
C212        C229   1.414       .  A
C213        C228   1.414       .  A
C213        C221   1.387       .  A
C214        C226   1.412       .  A
C214        C222   1.387       .  A
C215        C229   1.412       .  A
C215        C223   1.387       .  A
C216        C224   1.387       .  A
C216        C227   1.412       .  A
C217        C225   1.387       .  A
C217        C228   1.411       .  A
C218        H230   1.082       .  S
C218        C219   1.376   1_545  A
C219        H231   1.082       .  S
C220        H232   1.082       .  S
C220        C221   1.377   1_545  A
C221        H233   1.082       .  S
C222        H234   1.082       .  S
C222        C223   1.374   1_655  A
C223        H235   1.082       .  S
C224        H236   1.082       .  S
C224        C225   1.374   1_655  A
C225        H237   1.082       .  S
C226        C362   1.453       .  S
C227        C401   1.452       .  S
C228        C386   1.451       .  S
C229        C377   1.452       .  S
N240        C245   1.354       .  A
N240        C244   1.353   1_554  A
N240        H272   1.037       .  S
N241        C248   1.352   1_545  A
N241        C249   1.351       .  A
N242        C247   1.354       .  A
N242        C246   1.354   1_554  A
N242        H273   1.039       .  S
N243        C250   1.351   1_545  A
N243        C251   1.351       .  A
C244        C252   1.388       .  A
C244        C260   1.414       .  A
C245        C261   1.415       .  A
C245        C253   1.388       .  A
C246        C254   1.387       .  A
C246        C263   1.414       .  A
C247        C262   1.414       .  A
C247        C255   1.387       .  A
C248        C260   1.412       .  A
C248        C256   1.387       .  A
C249        C263   1.412       .  A
C249        C257   1.387       .  A
C250        C258   1.387       .  A
C250        C261   1.412       .  A
C251        C259   1.386       .  A
C251        C262   1.411       .  A
C252        H264   1.082       .  S
C252        C253   1.375   1_556  A
C253        H265   1.082       .  S
C254        H266   1.082       .  S
C254        C255   1.376   1_556  A
C255        H267   1.082       .  S
C256        H268   1.082       .  S
C256        C257   1.374   1_565  A
C257        H269   1.082       .  S
C258        H270   1.082       .  S
C258        C259   1.374   1_565  A
C259        H271   1.082       .  S
C260        C425   1.451       .  S
C261        C385   1.452       .  S
C262        C370   1.452       .  S
C263        C409   1.452       .  S
N274        C279   1.353   1_554  A
N274        C278   1.354       .  A
N274        H306   1.038       .  S
N275        C282   1.352       .  A
N275        C283   1.351   1_655  A
N276        C281   1.354   1_554  A
N276        C280   1.353       .  A
N276        H307   1.037       .  S
N277        C284   1.351       .  A
N277        C285   1.352   1_655  A
C278        C286   1.387       .  A
C278        C294   1.414       .  A
C279        C295   1.414       .  A
C279        C287   1.387       .  A
C280        C288   1.388       .  A
C280        C297   1.415       .  A
C281        C296   1.414       .  A
C281        C289   1.387       .  A
C282        C294   1.412       .  A
C282        C290   1.386       .  A
C283        C297   1.412       .  A
C283        C291   1.387       .  A
C284        C292   1.387       .  A
C284        C295   1.412       .  A
C285        C293   1.386       .  A
C285        C296   1.411       .  A
C286        H298   1.082       .  S
C286        C287   1.376   1_554  A
C287        H299   1.082       .  S
C288        H300   1.082       .  S
C288        C289   1.376   1_554  A
C289        H301   1.082       .  S
C290        H302   1.082       .  S
C290        C291   1.374   1_655  A
C291        H303   1.082       .  S
C292        H304   1.082       .  S
C292        C293   1.375   1_655  A
C293        H305   1.082       .  S
C294        C361   1.453       .  S
C295        C437   1.451       .  S
C296        C410   1.454       .  S
C297        C366   1.451       .  S
C308        C309   1.539       .  S
C308        C314   1.541       .  S
C308        C312   1.537       .  S
C308        C463   1.474       .  S
C309        H316   1.086       .  S
C309        C310   1.365       .  D
C310        C311   1.533       .  S
C310        C358   1.443       .  S
C311        C315   1.532       .  S
C311        C313   1.533       .  S
C311        H317   1.112       .  S
C312        H318   1.086       .  S
C312        C313   1.364       .  D
C313        C357   1.441       .  S
C314        H319   1.086       .  S
C314        C315   1.366       .  D
C315        C365   1.444       .  S
N320        C325   1.353   1_554  A
N320        C324   1.353       .  A
N320        H352   1.038       .  S
N321        C328   1.351   1_565  A
N321        C329   1.351       .  A
N322        C327   1.354   1_554  A
N322        C326   1.354       .  A
N322        H353   1.036       .  S
N323        C330   1.351   1_565  A
N323        C331   1.351       .  A
C324        C332   1.388       .  A
C324        C340   1.413       .  A
C325        C341   1.413       .  A
C325        C333   1.387       .  A
C326        C334   1.387       .  A
C326        C343   1.415       .  A
C327        C342   1.415       .  A
C327        C335   1.387       .  A
C328        C340   1.411       .  A
C328        C336   1.387       .  A
C329        C343   1.412       .  A
C329        C337   1.387       .  A
C330        C338   1.386       .  A
C330        C341   1.411       .  A
C331        C339   1.387       .  A
C331        C342   1.412       .  A
C332        H344   1.082       .  S
C332        C333   1.376   1_554  A
C333        H345   1.082       .  S
C334        H346   1.082       .  S
C334        C335   1.376   1_554  A
C335        H347   1.082       .  S
C336        H348   1.082       .  S
C336        C337   1.374   1_545  A
C337        H349   1.082       .  S
C338        H350   1.082       .  S
C338        C339   1.374   1_545  A
C339        H351   1.082       .  S
C340        C354   1.450       .  S
C341        C429   1.452       .  S
C342        C438   1.452       .  S
C343        C397   1.453       .  S
C354        C355   1.206       .  T
C355        C356   1.412       .  S
C356        C357   1.205       .  T
C358        C359   1.207       .  T
C359        C360   1.414       .  S
C360        C361   1.208       .  T
C362        C363   1.208       .  T
C363        C364   1.415       .  S
C364        C365   1.207       .  T
C366        C367   1.206       .  T
C367        C368   1.412       .  S
C368        C369   1.206       .  T
C370        C371   1.207       .  T
C371        C372   1.414       .  S
C372        C373   1.207       .  T
C374        C375   1.206       .  T
C375        C376   1.413       .  S
C376        C377   1.207       .  T
C378        C379   1.205       .  T
C379        C380   1.412       .  S
C380        C381   1.206       .  T
C382        C383   1.207       .  T
C383        C384   1.414       .  S
C384        C385   1.207       .  T
C386        C387   1.207       .  T
C387        C388   1.413       .  S
C388        C389   1.206       .  T
C390        C391   1.208       .  T
C391        C392   1.416       .  S
C392        C393   1.209       .  T
C394        C395   1.207       .  T
C395        C396   1.414       .  S
C396        C397   1.207       .  T
C398        C399   1.207       .  T
C399        C400   1.414       .  S
C400        C401   1.207       .  T
C402        C403   1.206       .  T
C403        C404   1.413       .  S
C404        C405   1.207       .  T
C406        C407   1.206       .  T
C407        C408   1.413       .  S
C408        C409   1.207       .  T
C410        C411   1.208       .  T
C411        C412   1.415       .  S
C412        C413   1.208       .  T
C414        C415   1.205       .  T
C415        C416   1.412       .  S
C416        C417   1.206       .  T
C418        C419   1.207       .  T
C419        C420   1.413       .  S
C420        C421   1.206       .  T
C422        C423   1.206       .  T
C423        C424   1.413       .  S
C424        C425   1.207       .  T
C426        C427   1.206       .  T
C427        C428   1.413       .  S
C428        C429   1.207       .  T
C430        C431   1.207       .  T
C431        C432   1.415       .  S
C432        C433   1.208       .  T
C434        C435   1.207       .  T
C435        C436   1.413       .  S
C436        C437   1.207       .  T
C438        C439   1.207       .  T
C439        C440   1.413       .  S
C440        C441   1.207       .  T
C442        C443   1.206       .  T
C443        C444   1.412       .  S
C444        C445   1.206       .  T
C446        C447   1.208       .  T
C447        C448   1.416       .  S
C448        C449   1.209       .  T
C450        C451   1.210       .  T
C452        C453   1.211       .  T
C454        C455   1.208       .  T
C456        C457   1.210       .  T
C458        C459   1.210       .  T
C460        C461   1.210       .  T
C462        C463   1.209       .  T
C464        C465   1.211       .  T
